Output file:    ex4_noedl.O.chem
Chemistry file: ex4_noedl.chem.dat
Database file:  phast.dat

------------------
Reading data base.
------------------

	SOLUTION_MASTER_SPECIES
	SOLUTION_SPECIES
	PHASES
	EXCHANGE_MASTER_SPECIES
	EXCHANGE_SPECIES
	SURFACE_MASTER_SPECIES
	SURFACE_SPECIES
	RATES
	END
------------------------------------
Reading input data for simulation 1.
------------------------------------

	SURFACE_MASTER_SPECIES
	        Surf    SurfOH
	SURFACE_SPECIES
	        SurfOH = SurfOH
	                log_k   0.0
	        SurfOH  + H+ = SurfOH2+
	                log_k   7.29
	        SurfOH = SurfO- + H+
	                log_k   -8.93
	        SurfOH + AsO4-3 + 3H+ = SurfH2AsO4 + H2O
	                log_k   29.31
	        SurfOH + AsO4-3 + 2H+ = SurfHAsO4- + H2O
	                log_k   23.51
	        SurfOH + AsO4-3 = SurfOHAsO4-3
	                log_k   10.58
	SOLUTION_MASTER_SPECIES
	        As       H3AsO4        -1.0     74.9216         74.9216
	SOLUTION_SPECIES
		H3AsO4 = H2AsO4- + H+
		log_k	-2.3
		delta_h	-7.066	kJ
		H3AsO4 = HAsO4-2 + 2H+
		log_k	-9.46
		delta_h	-3.846	kJ
		H3AsO4 = AsO4-3 + 3H+
		log_k	-21.11
		delta_h	14.354	kJ
	        H3AsO4 = H2AsO4- + H+ 
	        log_k           -2.243
	        delta_h -1.69 kcal
	        H3AsO4 = HAsO4-2 + 2H+ 
	        log_k           -9.001
	        delta_h -0.92 kcal
	        H3AsO4 = AsO4-3 + 3H+
	        log_k           -20.597
	        delta_h 3.43 kcal
	        H3AsO4 = H3AsO4
	        log_k           0.0
	        H3AsO4 = AsO4-3 + 3H+
	        log_k   -20.7
	        H+ + AsO4-3 = HAsO4-2
	        log_k   11.50
	        2H+ + AsO4-3 = H2AsO4-
	        log_k           18.46
	SOLUTION 1 20 x precipitation
	        pH      4.6
	        pe      4.0     O2(g)   -0.7
	        temp    25.
	        units   mmol/kgw
	        Ca      .191625
	        Mg      .035797
	        Na      .122668
	        Cl      .133704
	        C       .01096
	        S       .235153         charge
	END
-------------------------------------------
Beginning of initial solution calculations.
-------------------------------------------

Initial solution 1.	20 x precipitation

-----------------------------Solution composition------------------------------

	Elements           Molality       Moles

	C                 1.096e-05   1.096e-05
	Ca                1.916e-04   1.916e-04
	Cl                1.337e-04   1.337e-04
	Mg                3.580e-05   3.580e-05
	Na                1.227e-04   1.227e-04
	S                 2.351e-04   2.351e-04  Charge balance

----------------------------Description of solution----------------------------

                                       pH  =   4.600    
                                       pe  =  16.005      Equilibrium with O2(g)
                        Activity of water  =   1.000
                           Ionic strength  =   1.035e-03
                       Mass of water (kg)  =   1.000e+00
                 Total alkalinity (eq/kg)  =  -2.630e-05
                       Total CO2 (mol/kg)  =   1.096e-05
                      Temperature (deg C)  =  25.000
                  Electrical balance (eq)  =   7.111e-16
 Percent error, 100*(Cat-|An|)/(Cat+|An|)  =      0
                               Iterations  =   9
                                  Total H  = 1.110125e+02
                                  Total O  = 5.550762e+01

----------------------------Distribution of species----------------------------

                                                   Log       Log         Log 
   Species                 Molality    Activity  Molality  Activity     Gamma

   H+                     2.600e-05   2.512e-05    -4.585    -4.600    -0.015
   OH-                    4.133e-10   3.985e-10    -9.384    -9.400    -0.016
   H2O                    5.551e+01   1.000e+00     1.744         0         0
C(-4)            0.000e+00
   CH4                    0.000e+00   0.000e+00  -145.418  -145.418         0
C(4)             1.096e-05
   CO2                    1.076e-05   1.076e-05    -4.968    -4.968         0
   HCO3-                  1.975e-07   1.906e-07    -6.704    -6.720    -0.015
   CaHCO3+                4.048e-10   3.907e-10    -9.393    -9.408    -0.015
   MgHCO3+                6.905e-11   6.660e-11   -10.161   -10.177    -0.016
   NaHCO3                 1.267e-11   1.267e-11   -10.897   -10.897         0
   CO3-2                  4.105e-13   3.559e-13   -12.387   -12.449    -0.062
   CaCO3                  9.601e-14   9.603e-14   -13.018   -13.018         0
   MgCO3                  1.014e-14   1.014e-14   -13.994   -13.994         0
   NaCO3-                 8.122e-16   7.833e-16   -15.090   -15.106    -0.016
Ca               1.916e-04
   Ca+2                   1.853e-04   1.606e-04    -3.732    -3.794    -0.062
   CaSO4                  6.296e-06   6.297e-06    -5.201    -5.201         0
   CaHSO4+                9.608e-10   9.267e-10    -9.017    -9.033    -0.016
   CaHCO3+                4.048e-10   3.907e-10    -9.393    -9.408    -0.015
   CaOH+                  1.100e-12   1.061e-12   -11.958   -11.974    -0.016
   CaCO3                  9.601e-14   9.603e-14   -13.018   -13.018         0
Cl               1.337e-04
   Cl-                    1.337e-04   1.289e-04    -3.874    -3.890    -0.016
H(0)             0.000e+00
   H2                     0.000e+00   0.000e+00   -44.360   -44.360         0
Mg               3.580e-05
   Mg+2                   3.442e-05   2.986e-05    -4.463    -4.525    -0.062
   MgSO4                  1.375e-06   1.375e-06    -5.862    -5.862         0
   MgHCO3+                6.905e-11   6.660e-11   -10.161   -10.177    -0.016
   MgOH+                  4.475e-12   4.316e-12   -11.349   -11.365    -0.016
   MgCO3                  1.014e-14   1.014e-14   -13.994   -13.994         0
Na               1.227e-04
   Na+                    1.225e-04   1.182e-04    -3.912    -3.927    -0.016
   NaSO4-                 1.207e-07   1.164e-07    -6.918    -6.934    -0.016
   NaHCO3                 1.267e-11   1.267e-11   -10.897   -10.897         0
   NaOH                   3.109e-14   3.109e-14   -13.507   -13.507         0
   NaCO3-                 8.122e-16   7.833e-16   -15.090   -15.106    -0.016
O(0)             4.374e-04
   O2                     2.187e-04   2.188e-04    -3.660    -3.660         0
S(-2)            0.000e+00
   H2S                    0.000e+00   0.000e+00  -137.155  -137.155         0
   HS-                    0.000e+00   0.000e+00  -139.481  -139.497    -0.016
   S-2                    0.000e+00   0.000e+00  -147.752  -147.815    -0.062
S(6)             2.351e-04
   SO4-2                  2.268e-04   1.965e-04    -3.644    -3.707    -0.062
   CaSO4                  6.296e-06   6.297e-06    -5.201    -5.201         0
   MgSO4                  1.375e-06   1.375e-06    -5.862    -5.862         0
   HSO4-                  4.975e-07   4.798e-07    -6.303    -6.319    -0.016
   NaSO4-                 1.207e-07   1.164e-07    -6.918    -6.934    -0.016
   CaHSO4+                9.608e-10   9.267e-10    -9.017    -9.033    -0.016

------------------------------Saturation indices-------------------------------

	Phase               SI log IAP  log KT

	Anhydrite        -3.14   -7.50   -4.36  CaSO4
	Aragonite        -7.91  -16.24   -8.34  CaCO3
	Calcite          -7.76  -16.24   -8.48  CaCO3
	CH4(g)         -142.56 -145.42   -2.86  CH4
	CO2(g)           -3.50   -4.97   -1.47  CO2
	Dolomite        -16.13  -33.22  -17.09  CaMg(CO3)2
	Gypsum           -2.92   -7.50   -4.58  CaSO4:2H2O
	H2(g)           -41.21  -44.36   -3.15  H2
	H2O(g)           -1.51       0    1.51  H2O
	H2S(g)         -136.16 -137.16   -1.00  H2S
	Halite           -9.40   -7.82    1.58  NaCl
	O2(g)            -0.70   -3.66   -2.96  O2
	Sulfur         -100.83  -95.95    4.88  S

------------------
End of simulation.
------------------

------------------------------------
Reading input data for simulation 2.
------------------------------------

	USE solution 1
	EQUILIBRIUM_PHASES 1
	        Dolomite        0.0     1.6
	        Calcite         0.0     0.1
	        CO2(g)          -1.5    100.
	SAVE solution 1
	END
-----------------------------------------
Beginning of batch-reaction calculations.
-----------------------------------------

Reaction step 1.

-------------------------------Phase assemblage--------------------------------

                                                      Moles in assemblage
Phase                  SI log IAP  log KT      Initial       Final       Delta

Calcite                 0   -8.48   -8.48    1.000e-01   9.966e-02  -3.441e-04
CO2(g)              -1.50   -2.97   -1.47    1.000e+02   1.000e+02  -4.066e-03
Dolomite                0  -17.09  -17.09    1.600e+00   1.599e+00  -1.349e-03

-----------------------------Solution composition------------------------------

	Elements           Molality       Moles

	C                 7.119e-03   7.119e-03
	Ca                1.885e-03   1.884e-03
	Cl                1.337e-04   1.337e-04
	Mg                1.385e-03   1.385e-03
	Na                1.227e-04   1.227e-04
	S                 2.351e-04   2.351e-04

----------------------------Description of solution----------------------------

                                       pH  =   7.047      Charge balance
                                       pe  =  13.558      Adjusted to redox equilibrium
                        Activity of water  =   1.000
                           Ionic strength  =   9.629e-03
                       Mass of water (kg)  =   9.999e-01
                 Total alkalinity (eq/kg)  =   6.057e-03
                       Total CO2 (mol/kg)  =   7.119e-03
                      Temperature (deg C)  =  25.000
                  Electrical balance (eq)  =   2.136e-15
 Percent error, 100*(Cat-|An|)/(Cat+|An|)  =      0
                               Iterations  =   9
                                  Total H  = 1.110125e+02
                                  Total O  = 5.552487e+01

----------------------------Distribution of species----------------------------

                                                   Log       Log         Log 
   Species                 Molality    Activity  Molality  Activity     Gamma

   OH-                    1.236e-07   1.115e-07    -6.908    -6.953    -0.045
   H+                     9.814e-08   8.977e-08    -7.008    -7.047    -0.039
   H2O                    5.551e+01   9.998e-01     1.744         0         0
C(-4)            0.000e+00
   CH4                    0.000e+00   0.000e+00  -143.421  -143.420     0.001
C(4)             7.119e-03
   HCO3-                  5.883e-03   5.333e-03    -2.230    -2.273    -0.043
   CO2                    1.074e-03   1.077e-03    -2.969    -2.968     0.001
   CaHCO3+                8.923e-05   8.090e-05    -4.049    -4.092    -0.043
   MgHCO3+                6.082e-05   5.496e-05    -4.216    -4.260    -0.044
   CaCO3                  5.553e-06   5.565e-06    -5.256    -5.255     0.001
   CO3-2                  4.124e-06   2.786e-06    -5.385    -5.555    -0.170
   MgCO3                  2.336e-06   2.341e-06    -5.631    -5.631     0.001
   NaHCO3                 3.310e-07   3.317e-07    -6.480    -6.479     0.001
   NaCO3-                 6.350e-09   5.738e-09    -8.197    -8.241    -0.044
Ca               1.885e-03
   Ca+2                   1.761e-03   1.189e-03    -2.754    -2.925    -0.171
   CaHCO3+                8.923e-05   8.090e-05    -4.049    -4.092    -0.043
   CaSO4                  2.881e-05   2.888e-05    -4.540    -4.539     0.001
   CaCO3                  5.553e-06   5.565e-06    -5.256    -5.255     0.001
   CaOH+                  2.432e-09   2.198e-09    -8.614    -8.658    -0.044
   CaHSO4+                1.681e-11   1.519e-11   -10.775   -10.819    -0.044
Cl               1.337e-04
   Cl-                    1.337e-04   1.206e-04    -3.874    -3.919    -0.045
H(0)             0.000e+00
   H2                     0.000e+00   0.000e+00   -44.361   -44.361     0.001
Mg               1.385e-03
   Mg+2                   1.296e-03   8.807e-04    -2.887    -3.055    -0.168
   MgHCO3+                6.082e-05   5.496e-05    -4.216    -4.260    -0.044
   MgSO4                  2.507e-05   2.513e-05    -4.601    -4.600     0.001
   MgCO3                  2.336e-06   2.341e-06    -5.631    -5.631     0.001
   MgOH+                  3.941e-08   3.561e-08    -7.404    -7.448    -0.044
Na               1.227e-04
   Na+                    1.223e-04   1.106e-04    -3.913    -3.956    -0.044
   NaHCO3                 3.310e-07   3.317e-07    -6.480    -6.479     0.001
   NaSO4-                 7.467e-08   6.747e-08    -7.127    -7.171    -0.044
   NaCO3-                 6.350e-09   5.738e-09    -8.197    -8.241    -0.044
   NaOH                   8.120e-12   8.138e-12   -11.090   -11.089     0.001
O(0)             4.375e-04
   O2                     2.187e-04   2.192e-04    -3.660    -3.659     0.001
S(-2)            0.000e+00
   HS-                    0.000e+00   0.000e+00  -142.108  -142.153    -0.045
   H2S                    0.000e+00   0.000e+00  -142.259  -142.258     0.001
   S-2                    0.000e+00   0.000e+00  -147.852  -148.024    -0.172
S(6)             2.351e-04
   SO4-2                  1.811e-04   1.217e-04    -3.742    -3.915    -0.173
   CaSO4                  2.881e-05   2.888e-05    -4.540    -4.539     0.001
   MgSO4                  2.507e-05   2.513e-05    -4.601    -4.600     0.001
   NaSO4-                 7.467e-08   6.747e-08    -7.127    -7.171    -0.044
   HSO4-                  1.176e-09   1.062e-09    -8.930    -8.974    -0.044
   CaHSO4+                1.681e-11   1.519e-11   -10.775   -10.819    -0.044

------------------------------Saturation indices-------------------------------

	Phase               SI log IAP  log KT

	Anhydrite        -2.48   -6.84   -4.36  CaSO4
	Aragonite        -0.14   -8.48   -8.34  CaCO3
	Calcite              0   -8.48   -8.48  CaCO3
	CH4(g)         -140.56 -143.42   -2.86  CH4
	CO2(g)           -1.50   -2.97   -1.47  CO2
	Dolomite             0  -17.09  -17.09  CaMg(CO3)2
	Gypsum           -2.26   -6.84   -4.58  CaSO4:2H2O
	H2(g)           -41.21  -44.36   -3.15  H2
	H2O(g)           -1.51       0    1.51  H2O
	H2S(g)         -141.26 -142.26   -1.00  H2S
	Halite           -9.46   -7.87    1.58  NaCl
	O2(g)            -0.70   -3.66   -2.96  O2
	Sulfur         -105.93 -101.05    4.88  S

------------------
End of simulation.
------------------

------------------------------------
Reading input data for simulation 3.
------------------------------------

	SOLUTION 2 Brine
	        pH      5.713
	        pe      4.0     O2(g)   -0.7
	        temp    25.
	        units   mol/kgw
	        Ca      .4655
	        Mg      .1609
	        Na      5.402
	        Cl      6.642           charge
	        C       .00396
	        S       .004725
	        As      .01 umol/kgw
	END
-------------------------------------------
Beginning of initial solution calculations.
-------------------------------------------

Initial solution 2.	Brine

-----------------------------Solution composition------------------------------

	Elements           Molality       Moles

	As                1.000e-08   1.000e-08
	C                 3.960e-03   3.960e-03
	Ca                4.655e-01   4.655e-01
	Cl                6.642e+00   6.642e+00  Charge balance
	Mg                1.609e-01   1.609e-01
	Na                5.402e+00   5.402e+00
	S                 4.725e-03   4.725e-03

----------------------------Description of solution----------------------------

                                       pH  =   5.713    
                                       pe  =  14.945      Equilibrium with O2(g)
                        Activity of water  =   0.785
                           Ionic strength  =   7.266e+00
                       Mass of water (kg)  =   1.000e+00
                 Total alkalinity (eq/kg)  =   3.758e-03
                       Total CO2 (mol/kg)  =   3.960e-03
                      Temperature (deg C)  =  25.000
                  Electrical balance (eq)  =   1.027e-12
 Percent error, 100*(Cat-|An|)/(Cat+|An|)  =      0
                               Iterations  =  11
                                  Total H  = 1.110162e+02
                                  Total O  = 5.553688e+01

----------------------------Distribution of species----------------------------

                                                   Log       Log         Log 
   Species                 Molality    Activity  Molality  Activity     Gamma

   H+                     2.755e-06   1.936e-06    -5.560    -5.713    -0.153
   OH-                    8.773e-09   4.056e-09    -8.057    -8.392    -0.335
   H2O                    5.551e+01   7.846e-01     1.744    -0.105         0
As               1.000e-08
   H2AsO4-                9.993e-09   5.476e-08    -8.000    -7.262     0.739
   H3AsO4                 3.458e-12   1.843e-11   -11.461   -10.735     0.727
   HAsO4-2                3.440e-12   3.100e-09   -11.463    -8.509     2.955
   AsO4-3                 1.137e-21   5.063e-15   -20.944   -14.296     6.649
C(-4)            0.000e+00
   CH4                    0.000e+00   0.000e+00  -144.357  -143.631     0.727
C(4)             3.960e-03
   CaHCO3+                3.015e-03   1.745e-03    -2.521    -2.758    -0.238
   HCO3-                  3.336e-04   1.931e-04    -3.477    -3.714    -0.238
   MgHCO3+                2.161e-04   1.184e-03    -3.665    -2.927     0.739
   CO2                    2.010e-04   1.071e-03    -3.697    -2.970     0.727
   NaHCO3                 1.924e-04   1.025e-03    -3.716    -2.989     0.727
   CaCO3                  1.044e-06   5.564e-06    -5.981    -5.255     0.727
   MgCO3                  4.389e-07   2.339e-06    -6.358    -5.631     0.727
   NaCO3-                 1.500e-07   8.221e-07    -6.824    -6.085     0.739
   CO3-2                  4.170e-08   4.676e-09    -7.380    -8.330    -0.950
Ca               4.655e-01
   Ca+2                   4.609e-01   7.084e-01    -0.336    -0.150     0.187
   CaHCO3+                3.015e-03   1.745e-03    -2.521    -2.758    -0.238
   CaSO4                  1.600e-03   8.528e-03    -2.796    -2.069     0.727
   CaCO3                  1.044e-06   5.564e-06    -5.981    -5.255     0.727
   CaHSO4+                1.766e-08   9.674e-08    -7.753    -7.014     0.739
   CaOH+                  8.693e-09   4.763e-08    -8.061    -7.322     0.739
Cl               6.642e+00
   Cl-                    6.642e+00   3.946e+00     0.822     0.596    -0.226
H(0)             0.000e+00
   H2                     0.000e+00   0.000e+00   -45.192   -44.465     0.727
Mg               1.609e-01
   Mg+2                   1.593e-01   5.242e-01    -0.798    -0.280     0.517
   MgSO4                  1.391e-03   7.415e-03    -2.857    -2.130     0.727
   MgHCO3+                2.161e-04   1.184e-03    -3.665    -2.927     0.739
   MgCO3                  4.389e-07   2.339e-06    -6.358    -5.631     0.727
   MgOH+                  1.407e-07   7.712e-07    -6.852    -6.113     0.739
Na               5.402e+00
   Na+                    5.401e+00   9.442e+00     0.732     0.975     0.243
   NaSO4-                 5.211e-04   2.855e-03    -3.283    -2.544     0.739
   NaHCO3                 1.924e-04   1.025e-03    -3.716    -2.989     0.727
   NaCO3-                 1.500e-07   8.221e-07    -6.824    -6.085     0.739
   NaOH                   4.743e-09   2.528e-08    -8.324    -7.597     0.727
O(0)             8.211e-05
   O2                     4.106e-05   2.188e-04    -4.387    -3.660     0.727
S(-2)            0.000e+00
   H2S                    0.000e+00   0.000e+00  -140.620  -139.894     0.727
   HS-                    0.000e+00   0.000e+00  -140.787  -141.122    -0.335
   S-2                    0.000e+00   0.000e+00  -147.315  -148.327    -1.012
S(6)             4.725e-03
   CaSO4                  1.600e-03   8.528e-03    -2.796    -2.069     0.727
   MgSO4                  1.391e-03   7.415e-03    -2.857    -2.130     0.727
   SO4-2                  1.212e-03   6.034e-05    -2.916    -4.219    -1.303
   NaSO4-                 5.211e-04   2.855e-03    -3.283    -2.544     0.739
   CaHSO4+                1.766e-08   9.674e-08    -7.753    -7.014     0.739
   HSO4-                  2.073e-09   1.136e-08    -8.683    -7.945     0.739

------------------------------Saturation indices-------------------------------

	Phase               SI log IAP  log KT

	Anhydrite        -0.01   -4.37   -4.36  CaSO4
	Aragonite        -0.14   -8.48   -8.34  CaCO3
	Calcite              0   -8.48   -8.48  CaCO3
	CH4(g)         -140.77 -143.63   -2.86  CH4
	CO2(g)           -1.50   -2.97   -1.47  CO2
	Dolomite             0  -17.09  -17.09  CaMg(CO3)2
	Gypsum               0   -4.58   -4.58  CaSO4:2H2O
	H2(g)           -41.32  -44.47   -3.15  H2
	H2O(g)           -1.62   -0.11    1.51  H2O
	H2S(g)         -138.90 -139.89   -1.00  H2S
	Halite           -0.01    1.57    1.58  NaCl
	O2(g)            -0.70   -3.66   -2.96  O2
	Sulfur         -103.46  -98.58    4.88  S

------------------
End of simulation.
------------------

------------------------------------
Reading input data for simulation 4.
------------------------------------

	USE solution 2
	EQUILIBRIUM_PHASES 2
	        Dolomite        0.0     1.6
	        Calcite         0.0     0.1
	SAVE solution 2
	END
-----------------------------------------
Beginning of batch-reaction calculations.
-----------------------------------------

Reaction step 1.

-------------------------------Phase assemblage--------------------------------

                                                      Moles in assemblage
Phase                  SI log IAP  log KT      Initial       Final       Delta

Calcite                 0   -8.48   -8.48    1.000e-01   1.002e-01   2.185e-04
Dolomite                0  -17.09  -17.09    1.600e+00   1.600e+00  -1.093e-04

-----------------------------Solution composition------------------------------

	Elements           Molality       Moles

	As                1.000e-08   1.000e-08
	C                 3.960e-03   3.960e-03
	Ca                4.654e-01   4.654e-01
	Cl                6.642e+00   6.642e+00
	Mg                1.610e-01   1.610e-01
	Na                5.402e+00   5.402e+00
	S                 4.725e-03   4.725e-03

----------------------------Description of solution----------------------------

                                       pH  =   5.713      Charge balance
                                       pe  =  14.945      Adjusted to redox equilibrium
                        Activity of water  =   0.785
                           Ionic strength  =   7.266e+00
                       Mass of water (kg)  =   1.000e+00
                 Total alkalinity (eq/kg)  =   3.758e-03
                       Total CO2 (mol/kg)  =   3.960e-03
                      Temperature (deg C)  =  25.000
                  Electrical balance (eq)  =   1.033e-12
 Percent error, 100*(Cat-|An|)/(Cat+|An|)  =      0
                               Iterations  =   2
                                  Total H  = 1.110162e+02
                                  Total O  = 5.553688e+01

----------------------------Distribution of species----------------------------

                                                   Log       Log         Log 
   Species                 Molality    Activity  Molality  Activity     Gamma

   H+                     2.754e-06   1.936e-06    -5.560    -5.713    -0.153
   OH-                    8.776e-09   4.057e-09    -8.057    -8.392    -0.335
   H2O                    5.551e+01   7.846e-01     1.744    -0.105         0
As               1.000e-08
   H2AsO4-                9.993e-09   5.476e-08    -8.000    -7.262     0.739
   H3AsO4                 3.457e-12   1.842e-11   -11.461   -10.735     0.727
   HAsO4-2                3.441e-12   3.101e-09   -11.463    -8.508     2.955
   AsO4-3                 1.138e-21   5.066e-15   -20.944   -14.295     6.649
C(-4)            0.000e+00
   CH4                    0.000e+00   0.000e+00  -144.357  -143.631     0.727
C(4)             3.960e-03
   CaHCO3+                3.015e-03   1.745e-03    -2.521    -2.758    -0.238
   HCO3-                  3.337e-04   1.931e-04    -3.477    -3.714    -0.238
   MgHCO3+                2.163e-04   1.185e-03    -3.665    -2.926     0.739
   CO2                    2.010e-04   1.071e-03    -3.697    -2.970     0.727
   NaHCO3                 1.924e-04   1.025e-03    -3.716    -2.989     0.727
   CaCO3                  1.044e-06   5.565e-06    -5.981    -5.255     0.727
   MgCO3                  4.394e-07   2.341e-06    -6.357    -5.631     0.727
   NaCO3-                 1.501e-07   8.224e-07    -6.824    -6.085     0.739
   CO3-2                  4.171e-08   4.678e-09    -7.380    -8.330    -0.950
Ca               4.654e-01
   Ca+2                   4.608e-01   7.082e-01    -0.337    -0.150     0.187
   CaHCO3+                3.015e-03   1.745e-03    -2.521    -2.758    -0.238
   CaSO4                  1.600e-03   8.525e-03    -2.796    -2.069     0.727
   CaCO3                  1.044e-06   5.565e-06    -5.981    -5.255     0.727
   CaHSO4+                1.764e-08   9.668e-08    -7.753    -7.015     0.739
   CaOH+                  8.693e-09   4.763e-08    -8.061    -7.322     0.739
Cl               6.642e+00
   Cl-                    6.642e+00   3.946e+00     0.822     0.596    -0.226
H(0)             0.000e+00
   H2                     0.000e+00   0.000e+00   -45.192   -44.465     0.727
Mg               1.610e-01
   Mg+2                   1.594e-01   5.246e-01    -0.798    -0.280     0.517
   MgSO4                  1.392e-03   7.419e-03    -2.856    -2.130     0.727
   MgHCO3+                2.163e-04   1.185e-03    -3.665    -2.926     0.739
   MgCO3                  4.394e-07   2.341e-06    -6.357    -5.631     0.727
   MgOH+                  1.409e-07   7.719e-07    -6.851    -6.112     0.739
Na               5.402e+00
   Na+                    5.401e+00   9.442e+00     0.732     0.975     0.243
   NaSO4-                 5.210e-04   2.855e-03    -3.283    -2.544     0.739
   NaHCO3                 1.924e-04   1.025e-03    -3.716    -2.989     0.727
   NaCO3-                 1.501e-07   8.224e-07    -6.824    -6.085     0.739
   NaOH                   4.744e-09   2.528e-08    -8.324    -7.597     0.727
O(0)             8.211e-05
   O2                     4.106e-05   2.188e-04    -4.387    -3.660     0.727
S(-2)            0.000e+00
   H2S                    0.000e+00   0.000e+00  -140.621  -139.894     0.727
   HS-                    0.000e+00   0.000e+00  -140.788  -141.123    -0.335
   S-2                    0.000e+00   0.000e+00  -147.315  -148.327    -1.012
S(6)             4.725e-03
   CaSO4                  1.600e-03   8.525e-03    -2.796    -2.069     0.727
   MgSO4                  1.392e-03   7.419e-03    -2.856    -2.130     0.727
   SO4-2                  1.212e-03   6.033e-05    -2.917    -4.219    -1.303
   NaSO4-                 5.210e-04   2.855e-03    -3.283    -2.544     0.739
   CaHSO4+                1.764e-08   9.668e-08    -7.753    -7.015     0.739
   HSO4-                  2.072e-09   1.136e-08    -8.684    -7.945     0.739

------------------------------Saturation indices-------------------------------

	Phase               SI log IAP  log KT

	Anhydrite        -0.01   -4.37   -4.36  CaSO4
	Aragonite        -0.14   -8.48   -8.34  CaCO3
	Calcite              0   -8.48   -8.48  CaCO3
	CH4(g)         -140.77 -143.63   -2.86  CH4
	CO2(g)           -1.50   -2.97   -1.47  CO2
	Dolomite             0  -17.09  -17.09  CaMg(CO3)2
	Gypsum               0   -4.58   -4.58  CaSO4:2H2O
	H2(g)           -41.32  -44.47   -3.15  H2
	H2O(g)           -1.62   -0.11    1.51  H2O
	H2S(g)         -138.90 -139.89   -1.00  H2S
	Halite           -0.01    1.57    1.58  NaCl
	O2(g)            -0.70   -3.66   -2.96  O2
	Sulfur         -103.46  -98.58    4.88  S

------------------
End of simulation.
------------------

------------------------------------
Reading input data for simulation 5.
------------------------------------

	EXCHANGE 2
	        equilibrate with solution 2
	        X       0.5
	SURFACE 2
		no_edl
	        equilibrate solution 2
	        SurfOH          0.14     600.    30.
	END
-------------------------------------------------------
Beginning of initial exchange-composition calculations.
-------------------------------------------------------

Exchange 2.	

X                5.000e-01 mol

	                               Equiv-    Equivalent      Log 
	Species             Moles      alents      Fraction     Gamma

	NaX               4.507e-01   4.507e-01   9.014e-01     0.243
	CaX2              2.024e-02   4.048e-02   8.096e-02     0.187
	MgX2              4.418e-03   8.836e-03   1.767e-02     0.517

------------------------------------------------------
Beginning of initial surface-composition calculations.
------------------------------------------------------

Surface 2.	

Surf          
	  1.363e-01  Surface charge, eq
Surf          
	  1.400e-01  moles
	                                   Mole                     Log
	Species               Moles    Fraction    Molality    Molality

	SurfOH2+          1.363e-01       0.974   1.363e-01      -0.865
	SurfOH            3.611e-03       0.026   3.611e-03      -2.442
	SurfH2AsO4        3.454e-05           0   3.454e-05      -4.462
	SurfHAsO4-        2.828e-05           0   2.828e-05      -4.549
	SurfO-            2.192e-06           0   2.192e-06      -5.659
	SurfOHAsO4-3      6.956e-07           0   6.956e-07      -6.158

------------------
End of simulation.
------------------

------------------------------------
Reading input data for simulation 6.
------------------------------------

	SELECTED_OUTPUT
	        file ex4.dummy.sel
	        reset false
	        ph
	USER_PUNCH
	heading        Ca      Mg      Na      Cl      C(4)    SO4     As
	10 PUNCH TOT("Ca")*1e3*40.08
	20 PUNCH TOT("Mg")*1e3*24.312
	30 PUNCH TOT("Na")*1e3*23.
	40 PUNCH TOT("Cl")*1e3*35.45
	50 PUNCH TOT("C(4)")*1e3*61.   # as HCO3-
	60 PUNCH TOT("S(6)")*1e3*96.   # as SO4
	70 PUNCH TOT("As")*1e6*74.296  # ug/L
	END
------------------
End of simulation.
------------------

------------------------------------
Reading input data for simulation 7.
------------------------------------

List of Components:
	1	H
	2	O
	3	As
	4	C
	5	Ca
	6	Cl
	7	Mg
	8	Na
	9	S
	10	Charge
List of master species:
	1	As
	2	C(-4)
	3	C(4)
	4	Ca
	5	Cl
	6	Mg
	7	Na
	8	S(-2)
	9	S(6)
Time 10000. Cell 1: x=              0	y=              0	z=              0
Using solution 1.
Using exchange 1
Using surface 1.
Using pure phase assemblage 1.

-------------------------------Phase assemblage--------------------------------

                                                      Moles in assemblage
Phase                  SI log IAP  log KT      Initial       Final       Delta

Calcite                 0   -8.48   -8.48    1.004e-01   1.007e-01   3.141e-04
Dolomite                0  -17.09  -17.09    1.600e+00   1.600e+00  -1.552e-04

------------------------------Surface composition------------------------------

Surf          
	  1.363e-01  Surface charge, eq
Surf          
	  1.400e-01  moles
	                                   Mole                     Log
	Species               Moles    Fraction    Molality    Molality

	SurfOH2+          1.363e-01       0.974   1.363e-01      -0.865
	SurfOH            3.596e-03       0.026   3.596e-03      -2.444
	SurfH2AsO4        3.461e-05           0   3.461e-05      -4.461
	SurfHAsO4-        2.821e-05           0   2.821e-05      -4.550
	SurfO-            2.173e-06           0   2.173e-06      -5.663
	SurfOHAsO4-3      6.920e-07           0   6.920e-07      -6.160

-----------------------------Exchange composition------------------------------

X                5.000e-01 mol

	                               Equiv-    Equivalent      Log 
	Species             Moles      alents      Fraction     Gamma

	NaX               4.499e-01   4.499e-01   8.999e-01     0.232
	CaX2              2.049e-02   4.099e-02   8.198e-02     0.163
	MgX2              4.534e-03   9.067e-03   1.813e-02     0.488

-----------------------------Solution composition------------------------------

	Elements           Molality       Moles

	As                1.062e-08   1.062e-08
	C                 4.053e-03   4.053e-03
	Ca                4.531e-01   4.531e-01
	Cl                6.499e+00   6.499e+00
	Mg                1.588e-01   1.588e-01
	Na                5.288e+00   5.288e+00
	S                 4.628e-03   4.628e-03

----------------------------Description of solution----------------------------

                                       pH  =   5.711      Charge balance
                                       pe  =  14.951      Adjusted to redox equilibrium
                        Activity of water  =   0.789
                           Ionic strength  =   7.109e+00
                       Mass of water (kg)  =   1.000e+00
                 Total alkalinity (eq/kg)  =   3.826e-03
                       Total CO2 (mol/kg)  =   4.053e-03
                      Temperature (deg C)  =  25.000
                  Electrical balance (eq)  =   3.279e-05
 Percent error, 100*(Cat-|An|)/(Cat+|An|)  =      0
                               Iterations  =   4
                                  Total H  = 1.110163e+02
                                  Total O  = 5.553676e+01

----------------------------Distribution of species----------------------------

                                                   Log       Log         Log 
   Species                 Molality    Activity  Molality  Activity     Gamma

   H+                     2.765e-06   1.944e-06    -5.558    -5.711    -0.153
   OH-                    8.771e-09   4.063e-09    -8.057    -8.391    -0.334
   H2O                    5.551e+01   7.892e-01     1.744    -0.103         0
As               1.062e-08
   H2AsO4-                1.062e-08   5.518e-08    -7.974    -7.258     0.716
   HAsO4-2                4.263e-12   3.112e-09   -11.370    -8.507     2.863
   H3AsO4                 3.628e-12   1.865e-11   -11.440   -10.729     0.711
   AsO4-3                 1.828e-21   5.061e-15   -20.738   -14.296     6.442
C(-4)            0.000e+00
   CH4                    0.000e+00   0.000e+00  -144.345  -143.635     0.711
C(4)             4.053e-03
   CaHCO3+                3.025e-03   1.752e-03    -2.519    -2.756    -0.237
   HCO3-                  3.634e-04   2.105e-04    -3.440    -3.677    -0.237
   MgHCO3+                2.290e-04   1.190e-03    -3.640    -2.924     0.716
   CO2                    2.269e-04   1.166e-03    -3.644    -2.933     0.711
   NaHCO3                 2.075e-04   1.067e-03    -3.683    -2.972     0.711
   CaCO3                  1.083e-06   5.565e-06    -5.965    -5.255     0.711
   MgCO3                  4.556e-07   2.341e-06    -6.341    -5.631     0.711
   NaCO3-                 1.639e-07   8.518e-07    -6.785    -6.070     0.716
   CO3-2                  4.509e-08   5.077e-09    -7.346    -8.294    -0.948
Ca               4.531e-01
   Ca+2                   4.485e-01   6.525e-01    -0.348    -0.185     0.163
   CaHCO3+                3.025e-03   1.752e-03    -2.519    -2.756    -0.237
   CaSO4                  1.547e-03   7.952e-03    -2.810    -2.100     0.711
   CaCO3                  1.083e-06   5.565e-06    -5.965    -5.255     0.711
   CaHSO4+                1.743e-08   9.058e-08    -7.759    -7.043     0.716
   CaOH+                  8.456e-09   4.395e-08    -8.073    -7.357     0.716
Cl               6.499e+00
   Cl-                    6.499e+00   3.849e+00     0.813     0.585    -0.228
H(0)             0.000e+00
   H2                     0.000e+00   0.000e+00   -45.185   -44.474     0.711
Mg               1.588e-01
   Mg+2                   1.572e-01   4.833e-01    -0.803    -0.316     0.488
   MgSO4                  1.347e-03   6.921e-03    -2.871    -2.160     0.711
   MgHCO3+                2.290e-04   1.190e-03    -3.640    -2.924     0.716
   MgCO3                  4.556e-07   2.341e-06    -6.341    -5.631     0.711
   MgOH+                  1.370e-07   7.122e-07    -6.863    -6.147     0.716
Na               5.288e+00
   Na+                    5.287e+00   9.010e+00     0.723     0.955     0.232
   NaSO4-                 5.307e-04   2.759e-03    -3.275    -2.559     0.716
   NaHCO3                 2.075e-04   1.067e-03    -3.683    -2.972     0.711
   NaCO3-                 1.639e-07   8.518e-07    -6.785    -6.070     0.716
   NaOH                   4.702e-09   2.416e-08    -8.328    -7.617     0.711
O(0)             8.975e-05
   O2                     4.488e-05   2.306e-04    -4.348    -3.637     0.711
S(-2)            0.000e+00
   H2S                    0.000e+00   0.000e+00  -140.642  -139.931     0.711
   HS-                    0.000e+00   0.000e+00  -140.827  -141.161    -0.334
   S-2                    0.000e+00   0.000e+00  -147.358  -148.368    -1.010
S(6)             4.628e-03
   CaSO4                  1.547e-03   7.952e-03    -2.810    -2.100     0.711
   MgSO4                  1.347e-03   6.921e-03    -2.871    -2.160     0.711
   SO4-2                  1.204e-03   6.109e-05    -2.919    -4.214    -1.295
   NaSO4-                 5.307e-04   2.759e-03    -3.275    -2.559     0.716
   CaHSO4+                1.743e-08   9.058e-08    -7.759    -7.043     0.716
   HSO4-                  2.222e-09   1.155e-08    -8.653    -7.938     0.716

------------------------------Saturation indices-------------------------------

	Phase               SI log IAP  log KT

	Anhydrite        -0.04   -4.40   -4.36  CaSO4
	Aragonite        -0.14   -8.48   -8.34  CaCO3
	Calcite              0   -8.48   -8.48  CaCO3
	CH4(g)         -140.77 -143.63   -2.86  CH4
	CO2(g)           -1.47   -2.93   -1.47  CO2
	Dolomite             0  -17.09  -17.09  CaMg(CO3)2
	Gypsum           -0.02   -4.61   -4.58  CaSO4:2H2O
	H2(g)           -41.32  -44.47   -3.15  H2
	H2O(g)           -1.61   -0.10    1.51  H2O
	H2S(g)         -138.93 -139.93   -1.00  H2S
	Halite           -0.04    1.54    1.58  NaCl
	O2(g)            -0.68   -3.64   -2.96  O2
	Sulfur         -103.49  -98.61    4.88  S

Time 10000. Cell 4: x=          18000	y=              0	z=              0
Using solution 4.
Using exchange 4
Using surface 4.
Using pure phase assemblage 4.

-------------------------------Phase assemblage--------------------------------

                                                      Moles in assemblage
Phase                  SI log IAP  log KT      Initial       Final       Delta

Calcite                 0   -8.48   -8.48    1.318e-01   1.377e-01   5.856e-03
Dolomite                0  -17.09  -17.09    1.584e+00   1.581e+00  -3.119e-03

------------------------------Surface composition------------------------------

Surf          
	  1.348e-01  Surface charge, eq
Surf          
	  1.400e-01  moles
	                                   Mole                     Log
	Species               Moles    Fraction    Molality    Molality

	SurfOH2+          1.349e-01       0.963   1.349e-01      -0.870
	SurfOH            5.068e-03       0.036   5.068e-03      -2.295
	SurfHAsO4-        3.311e-05           0   3.311e-05      -4.480
	SurfH2AsO4        2.851e-05           0   2.851e-05      -4.545
	SurfO-            4.364e-06           0   4.363e-06      -5.360
	SurfOHAsO4-3      1.883e-06           0   1.883e-06      -5.725

-----------------------------Exchange composition------------------------------

X                5.000e-01 mol

	                               Equiv-    Equivalent      Log 
	Species             Moles      alents      Fraction     Gamma

	NaX               4.187e-01   4.187e-01   8.374e-01    -0.026
	CaX2              3.106e-02   6.211e-02   1.242e-01    -0.385
	MgX2              9.586e-03   1.917e-02   3.835e-02    -0.205

-----------------------------Solution composition------------------------------

	Elements           Molality       Moles

	As                3.588e-08   3.588e-08
	C                 7.732e-03   7.732e-03
	Ca                1.791e-01   1.791e-01
	Cl                3.028e+00   3.028e+00
	Mg                8.734e-02   8.734e-02
	Na                2.509e+00   2.509e+00
	S                 2.282e-03   2.282e-03

----------------------------Description of solution----------------------------

                                       pH  =   5.865      Charge balance
                                       pe  =  14.795      Adjusted to redox equilibrium
                        Activity of water  =   0.901
                           Ionic strength  =   3.298e+00
                       Mass of water (kg)  =   1.000e+00
                 Total alkalinity (eq/kg)  =   5.624e-03
                       Total CO2 (mol/kg)  =   7.732e-03
                      Temperature (deg C)  =  25.000
                  Electrical balance (eq)  =   3.492e-03
 Percent error, 100*(Cat-|An|)/(Cat+|An|)  =   0.06
                               Iterations  =   5
                                  Total H  = 1.110209e+02
                                  Total O  = 5.553814e+01

----------------------------Distribution of species----------------------------

                                                   Log       Log         Log 
   Species                 Molality    Activity  Molality  Activity     Gamma

   H+                     1.907e-06   1.365e-06    -5.720    -5.865    -0.145
   OH-                    1.318e-08   6.611e-09    -7.880    -8.180    -0.300
   H2O                    5.551e+01   9.013e-01     1.744    -0.045         0
As               3.588e-08
   H2AsO4-                3.503e-08   5.247e-08    -7.456    -7.280     0.175
   HAsO4-2                8.378e-10   4.216e-09    -9.077    -8.375     0.702
   H3AsO4                 5.823e-12   1.244e-11   -11.235   -10.905     0.330
   AsO4-3                 2.576e-16   9.770e-15   -15.589   -14.010     1.579
C(-4)            0.000e+00
   CH4                    0.000e+00   0.000e+00  -143.473  -143.143     0.330
C(4)             7.732e-03
   HCO3-                  2.196e-03   1.326e-03    -2.658    -2.878    -0.219
   CO2                    2.112e-03   4.513e-03    -2.675    -2.346     0.330
   CaHCO3+                2.037e-03   1.230e-03    -2.691    -2.910    -0.219
   NaHCO3                 8.240e-04   1.761e-03    -3.084    -2.754     0.330
   MgHCO3+                5.578e-04   8.355e-04    -3.254    -3.078     0.175
   CaCO3                  2.604e-06   5.565e-06    -5.584    -5.255     0.330
   NaCO3-                 1.338e-06   2.004e-06    -5.874    -5.698     0.175
   MgCO3                  1.096e-06   2.341e-06    -5.960    -5.631     0.330
   CO3-2                  3.430e-07   4.555e-08    -6.465    -7.341    -0.877
Ca               1.791e-01
   Ca+2                   1.765e-01   7.272e-02    -0.753    -1.138    -0.385
   CaHCO3+                2.037e-03   1.230e-03    -2.691    -2.910    -0.219
   CaSO4                  4.824e-04   1.031e-03    -3.317    -2.987     0.330
   CaCO3                  2.604e-06   5.565e-06    -5.584    -5.255     0.330
   CaHSO4+                5.503e-09   8.242e-09    -8.259    -8.084     0.175
   CaOH+                  5.322e-09   7.970e-09    -8.274    -8.099     0.175
Cl               3.028e+00
   Cl-                    3.028e+00   1.702e+00     0.481     0.231    -0.250
H(0)             0.000e+00
   H2                     0.000e+00   0.000e+00   -44.799   -44.470     0.330
Mg               8.734e-02
   Mg+2                   8.636e-02   5.387e-02    -1.064    -1.269    -0.205
   MgHCO3+                5.578e-04   8.355e-04    -3.254    -3.078     0.175
   MgSO4                  4.199e-04   8.972e-04    -3.377    -3.047     0.330
   MgCO3                  1.096e-06   2.341e-06    -5.960    -5.631     0.330
   MgOH+                  8.624e-08   1.292e-07    -7.064    -6.889     0.175
Na               2.509e+00
   Na+                    2.508e+00   2.362e+00     0.399     0.373    -0.026
   NaHCO3                 8.240e-04   1.761e-03    -3.084    -2.754     0.330
   NaSO4-                 5.617e-04   8.412e-04    -3.251    -3.075     0.175
   NaCO3-                 1.338e-06   2.004e-06    -5.874    -5.698     0.175
   NaOH                   4.824e-09   1.031e-08    -8.317    -7.987     0.330
O(0)             2.755e-04
   O2                     1.377e-04   2.943e-04    -3.861    -3.531     0.330
S(-2)            0.000e+00
   H2S                    0.000e+00   0.000e+00  -140.714  -140.384     0.330
   HS-                    0.000e+00   0.000e+00  -141.161  -141.461    -0.300
   S-2                    0.000e+00   0.000e+00  -147.585  -148.514    -0.929
S(6)             2.282e-03
   SO4-2                  8.181e-04   7.105e-05    -3.087    -4.148    -1.061
   NaSO4-                 5.617e-04   8.412e-04    -3.251    -3.075     0.175
   CaSO4                  4.824e-04   1.031e-03    -3.317    -2.987     0.330
   MgSO4                  4.199e-04   8.972e-04    -3.377    -3.047     0.330
   HSO4-                  6.294e-09   9.427e-09    -8.201    -8.026     0.175
   CaHSO4+                5.503e-09   8.242e-09    -8.259    -8.084     0.175

------------------------------Saturation indices-------------------------------

	Phase               SI log IAP  log KT

	Anhydrite        -0.93   -5.29   -4.36  CaSO4
	Aragonite        -0.14   -8.48   -8.34  CaCO3
	Calcite              0   -8.48   -8.48  CaCO3
	CH4(g)         -140.28 -143.14   -2.86  CH4
	CO2(g)           -0.88   -2.35   -1.47  CO2
	Dolomite             0  -17.09  -17.09  CaMg(CO3)2
	Gypsum           -0.80   -5.38   -4.58  CaSO4:2H2O
	H2(g)           -41.32  -44.47   -3.15  H2
	H2O(g)           -1.56   -0.05    1.51  H2O
	H2S(g)         -139.39 -140.38   -1.00  H2S
	Halite           -0.98    0.60    1.58  NaCl
	O2(g)            -0.57   -3.53   -2.96  O2
	Sulfur         -103.95  -99.06    4.88  S

Time 10000. Cell 7: x=          36000	y=              0	z=              0
Using solution 7.
Using exchange 7
Using surface 7.
Using pure phase assemblage 7.

-------------------------------Phase assemblage--------------------------------

                                                      Moles in assemblage
Phase                  SI log IAP  log KT      Initial       Final       Delta

Calcite                 0   -8.48   -8.48    1.507e-01   1.490e-01  -1.633e-03
Dolomite                0  -17.09  -17.09    1.570e+00   1.568e+00  -2.266e-03

------------------------------Surface composition------------------------------

Surf          
	  1.142e-01  Surface charge, eq
Surf          
	  1.400e-01  moles
	                                   Mole                     Log
	Species               Moles    Fraction    Molality    Molality

	SurfOH2+          1.145e-01       0.818   1.145e-01      -0.941
	SurfOH            2.531e-02       0.181   2.531e-02      -1.597
	SurfO-            1.282e-04       0.001   1.282e-04      -3.892
	SurfOHAsO4-3      4.147e-05           0   4.146e-05      -4.382
	SurfHAsO4-        1.917e-05           0   1.917e-05      -4.717
	SurfH2AsO4        2.806e-06           0   2.806e-06      -5.552

-----------------------------Exchange composition------------------------------

X                5.000e-01 mol

	                               Equiv-    Equivalent      Log 
	Species             Moles      alents      Fraction     Gamma

	NaX               3.219e-01   3.219e-01   6.437e-01    -0.138
	CaX2              6.225e-02   1.245e-01   2.490e-01    -0.531
	MgX2              2.681e-02   5.362e-02   1.072e-01    -0.495

-----------------------------Solution composition------------------------------

	Elements           Molality       Moles

	As                1.991e-08   1.991e-08
	C                 1.810e-02   1.810e-02
	Ca                6.547e-03   6.547e-03
	Cl                2.498e-01   2.498e-01
	Mg                4.469e-03   4.469e-03
	Na                2.567e-01   2.568e-01
	S                 4.038e-04   4.039e-04

----------------------------Description of solution----------------------------

                                       pH  =   6.635      Charge balance
                                       pe  =  13.976      Adjusted to redox equilibrium
                        Activity of water  =   0.991
                           Ionic strength  =   2.807e-01
                       Mass of water (kg)  =   1.000e+00
                 Total alkalinity (eq/kg)  =   1.371e-02
                       Total CO2 (mol/kg)  =   1.810e-02
                      Temperature (deg C)  =  25.000
                  Electrical balance (eq)  =   1.445e-02
 Percent error, 100*(Cat-|An|)/(Cat+|An|)  =   2.68
                               Iterations  =   5
                                  Total H  = 1.110328e+02
                                  Total O  = 5.556148e+01

----------------------------Distribution of species----------------------------

                                                   Log       Log         Log 
   Species                 Molality    Activity  Molality  Activity     Gamma

   H+                     2.956e-07   2.320e-07    -6.529    -6.635    -0.105
   OH-                    6.292e-08   4.276e-08    -7.201    -7.369    -0.168
   H2O                    5.551e+01   9.909e-01     1.744    -0.004         0
As               1.991e-08
   HAsO4-2                1.081e-08   3.161e-09    -7.966    -8.500    -0.534
   H2AsO4-                9.095e-09   6.688e-09    -8.041    -8.175    -0.133
   AsO4-3                 6.853e-13   4.309e-14   -12.164   -13.366    -1.201
   H3AsO4                 2.528e-13   2.697e-13   -12.597   -12.569     0.028
C(-4)            0.000e+00
   CH4                    0.000e+00   0.000e+00  -142.842  -142.814     0.028
C(4)             1.810e-02
   HCO3-                  1.231e-02   8.933e-03    -1.910    -2.049    -0.139
   CO2                    4.408e-03   4.702e-03    -2.356    -2.328     0.028
   NaHCO3                 8.764e-04   9.349e-04    -3.057    -3.029     0.028
   CaHCO3+                2.880e-04   2.091e-04    -3.541    -3.680    -0.139
   MgHCO3+                1.931e-04   1.420e-04    -3.714    -3.848    -0.133
   NaCO3-                 8.510e-06   6.258e-06    -5.070    -5.204    -0.133
   CO3-2                  6.505e-06   1.806e-06    -5.187    -5.743    -0.557
   CaCO3                  5.216e-06   5.565e-06    -5.283    -5.255     0.028
   MgCO3                  2.195e-06   2.341e-06    -5.659    -5.631     0.028
Ca               6.547e-03
   Ca+2                   6.230e-03   1.834e-03    -2.206    -2.737    -0.531
   CaHCO3+                2.880e-04   2.091e-04    -3.541    -3.680    -0.139
   CaSO4                  2.394e-05   2.554e-05    -4.621    -4.593     0.028
   CaCO3                  5.216e-06   5.565e-06    -5.283    -5.255     0.028
   CaOH+                  1.768e-09   1.300e-09    -8.752    -8.886    -0.133
   CaHSO4+                4.720e-11   3.471e-11   -10.326   -10.460    -0.133
Cl               2.498e-01
   Cl-                    2.498e-01   1.714e-01    -0.602    -0.766    -0.164
H(0)             0.000e+00
   H2                     0.000e+00   0.000e+00   -44.399   -44.371     0.028
Mg               4.469e-03
   Mg+2                   4.252e-03   1.359e-03    -2.371    -2.867    -0.495
   MgHCO3+                1.931e-04   1.420e-04    -3.714    -3.848    -0.133
   MgSO4                  2.083e-05   2.223e-05    -4.681    -4.653     0.028
   MgCO3                  2.195e-06   2.341e-06    -5.659    -5.631     0.028
   MgOH+                  2.865e-08   2.107e-08    -7.543    -7.676    -0.133
Na               2.567e-01
   Na+                    2.558e-01   1.861e-01    -0.592    -0.730    -0.138
   NaHCO3                 8.764e-04   9.349e-04    -3.057    -3.029     0.028
   NaSO4-                 8.851e-05   6.509e-05    -4.053    -4.187    -0.133
   NaCO3-                 8.510e-06   6.258e-06    -5.070    -5.204    -0.133
   NaOH                   4.923e-09   5.252e-09    -8.308    -8.280     0.028
O(0)             4.241e-04
   O2                     2.120e-04   2.262e-04    -3.674    -3.646     0.028
S(-2)            0.000e+00
   H2S                    0.000e+00   0.000e+00  -141.731  -141.703     0.028
   HS-                    0.000e+00   0.000e+00  -141.842  -142.010    -0.168
   S-2                    0.000e+00   0.000e+00  -147.716  -148.293    -0.577
S(6)             4.038e-04
   SO4-2                  2.706e-04   6.978e-05    -3.568    -4.156    -0.589
   NaSO4-                 8.851e-05   6.509e-05    -4.053    -4.187    -0.133
   CaSO4                  2.394e-05   2.554e-05    -4.621    -4.593     0.028
   MgSO4                  2.083e-05   2.223e-05    -4.681    -4.653     0.028
   HSO4-                  2.140e-09   1.574e-09    -8.670    -8.803    -0.133
   CaHSO4+                4.720e-11   3.471e-11   -10.326   -10.460    -0.133

------------------------------Saturation indices-------------------------------

	Phase               SI log IAP  log KT

	Anhydrite        -2.53   -6.89   -4.36  CaSO4
	Aragonite        -0.14   -8.48   -8.34  CaCO3
	Calcite              0   -8.48   -8.48  CaCO3
	CH4(g)         -139.95 -142.81   -2.86  CH4
	CO2(g)           -0.86   -2.33   -1.47  CO2
	Dolomite             0  -17.09  -17.09  CaMg(CO3)2
	Gypsum           -2.32   -6.90   -4.58  CaSO4:2H2O
	H2(g)           -41.22  -44.37   -3.15  H2
	H2O(g)           -1.51       0    1.51  H2O
	H2S(g)         -140.71 -141.70   -1.00  H2S
	Halite           -3.08   -1.50    1.58  NaCl
	O2(g)            -0.69   -3.65   -2.96  O2
	Sulfur         -105.36 -100.48    4.88  S

Time 10000. Cell 49: x=              0	y=          18000	z=              0
Using solution 49.
Using exchange 49
Using surface 49.
Using pure phase assemblage 49.

-------------------------------Phase assemblage--------------------------------

                                                      Moles in assemblage
Phase                  SI log IAP  log KT      Initial       Final       Delta

Calcite                 0   -8.48   -8.48    1.008e-01   1.014e-01   5.914e-04
Dolomite                0  -17.09  -17.09    1.600e+00   1.599e+00  -2.924e-04

------------------------------Surface composition------------------------------

Surf          
	  1.363e-01  Surface charge, eq
Surf          
	  1.400e-01  moles
	                                   Mole                     Log
	Species               Moles    Fraction    Molality    Molality

	SurfOH2+          1.364e-01       0.974   1.364e-01      -0.865
	SurfOH            3.582e-03       0.026   3.582e-03      -2.446
	SurfH2AsO4        3.468e-05           0   3.468e-05      -4.460
	SurfHAsO4-        2.815e-05           0   2.815e-05      -4.551
	SurfO-            2.155e-06           0   2.155e-06      -5.667
	SurfOHAsO4-3      6.871e-07           0   6.871e-07      -6.163

-----------------------------Exchange composition------------------------------

X                5.000e-01 mol

	                               Equiv-    Equivalent      Log 
	Species             Moles      alents      Fraction     Gamma

	NaX               4.495e-01   4.495e-01   8.990e-01     0.225
	CaX2              2.065e-02   4.130e-02   8.259e-02     0.149
	MgX2              4.604e-03   9.208e-03   1.842e-02     0.470

-----------------------------Solution composition------------------------------

	Elements           Molality       Moles

	As                1.102e-08   1.102e-08
	C                 4.120e-03   4.120e-03
	Ca                4.458e-01   4.458e-01
	Cl                6.414e+00   6.414e+00
	Mg                1.575e-01   1.575e-01
	Na                5.220e+00   5.220e+00
	S                 4.571e-03   4.571e-03

----------------------------Description of solution----------------------------

                                       pH  =   5.709      Charge balance
                                       pe  =  14.955      Adjusted to redox equilibrium
                        Activity of water  =   0.792
                           Ionic strength  =   7.016e+00
                       Mass of water (kg)  =   1.000e+00
                 Total alkalinity (eq/kg)  =   3.874e-03
                       Total CO2 (mol/kg)  =   4.120e-03
                      Temperature (deg C)  =  25.000
                  Electrical balance (eq)  =   6.543e-05
 Percent error, 100*(Cat-|An|)/(Cat+|An|)  =      0
                               Iterations  =   4
                                  Total H  = 1.110163e+02
                                  Total O  = 5.553672e+01

----------------------------Distribution of species----------------------------

                                                   Log       Log         Log 
   Species                 Molality    Activity  Molality  Activity     Gamma

   H+                     2.776e-06   1.952e-06    -5.557    -5.709    -0.153
   OH-                    8.754e-09   4.060e-09    -8.058    -8.391    -0.334
   H2O                    5.551e+01   7.919e-01     1.744    -0.101         0
As               1.102e-08
   H2AsO4-                1.101e-08   5.548e-08    -7.958    -7.256     0.702
   HAsO4-2                4.838e-12   3.115e-09   -11.315    -8.506     2.809
   H3AsO4                 3.742e-12   1.882e-11   -11.427   -10.725     0.702
   AsO4-3                 2.415e-21   5.046e-15   -20.617   -14.297     6.320
C(-4)            0.000e+00
   CH4                    0.000e+00   0.000e+00  -144.334  -143.632     0.702
C(4)             4.120e-03
   CaHCO3+                3.036e-03   1.760e-03    -2.518    -2.755    -0.237
   HCO3-                  3.829e-04   2.220e-04    -3.417    -3.654    -0.237
   CO2                    2.446e-04   1.230e-03    -3.612    -2.910     0.702
   MgHCO3+                2.373e-04   1.195e-03    -3.625    -2.923     0.702
   NaHCO3                 2.174e-04   1.094e-03    -3.663    -2.961     0.702
   CaCO3                  1.106e-06   5.565e-06    -5.956    -5.255     0.702
   MgCO3                  4.655e-07   2.341e-06    -6.332    -5.631     0.702
   NaCO3-                 1.727e-07   8.698e-07    -6.763    -6.061     0.702
   CO3-2                  4.723e-08   5.331e-09    -7.326    -8.273    -0.947
Ca               4.458e-01
   Ca+2                   4.413e-01   6.213e-01    -0.355    -0.207     0.149
   CaHCO3+                3.036e-03   1.760e-03    -2.518    -2.755    -0.237
   CaSO4                  1.516e-03   7.628e-03    -2.819    -2.118     0.702
   CaCO3                  1.106e-06   5.565e-06    -5.956    -5.255     0.702
   CaHSO4+                1.732e-08   8.725e-08    -7.761    -7.059     0.702
   CaOH+                  8.302e-09   4.182e-08    -8.081    -7.379     0.702
Cl               6.414e+00
   Cl-                    6.414e+00   3.791e+00     0.807     0.579    -0.228
H(0)             0.000e+00
   H2                     0.000e+00   0.000e+00   -45.180   -44.479     0.702
Mg               1.575e-01
   Mg+2                   1.559e-01   4.602e-01    -0.807    -0.337     0.470
   MgSO4                  1.320e-03   6.638e-03    -2.880    -2.178     0.702
   MgHCO3+                2.373e-04   1.195e-03    -3.625    -2.923     0.702
   MgCO3                  4.655e-07   2.341e-06    -6.332    -5.631     0.702
   MgOH+                  1.345e-07   6.778e-07    -6.871    -6.169     0.702
Na               5.220e+00
   Na+                    5.220e+00   8.762e+00     0.718     0.943     0.225
   NaSO4-                 5.363e-04   2.702e-03    -3.271    -2.568     0.702
   NaHCO3                 2.174e-04   1.094e-03    -3.663    -2.961     0.702
   NaCO3-                 1.727e-07   8.698e-07    -6.763    -6.061     0.702
   NaOH                   4.668e-09   2.348e-08    -8.331    -7.629     0.702
O(0)             9.429e-05
   O2                     4.715e-05   2.371e-04    -4.327    -3.625     0.702
S(-2)            0.000e+00
   H2S                    0.000e+00   0.000e+00  -140.650  -139.948     0.702
   HS-                    0.000e+00   0.000e+00  -140.847  -141.180    -0.334
   S-2                    0.000e+00   0.000e+00  -147.380  -148.389    -1.009
S(6)             4.571e-03
   CaSO4                  1.516e-03   7.628e-03    -2.819    -2.118     0.702
   MgSO4                  1.320e-03   6.638e-03    -2.880    -2.178     0.702
   SO4-2                  1.199e-03   6.153e-05    -2.921    -4.211    -1.290
   NaSO4-                 5.363e-04   2.702e-03    -3.271    -2.568     0.702
   CaHSO4+                1.732e-08   8.725e-08    -7.761    -7.059     0.702
   HSO4-                  2.319e-09   1.168e-08    -8.635    -7.933     0.702

------------------------------Saturation indices-------------------------------

	Phase               SI log IAP  log KT

	Anhydrite        -0.06   -4.42   -4.36  CaSO4
	Aragonite        -0.14   -8.48   -8.34  CaCO3
	Calcite              0   -8.48   -8.48  CaCO3
	CH4(g)         -140.77 -143.63   -2.86  CH4
	CO2(g)           -1.44   -2.91   -1.47  CO2
	Dolomite             0  -17.09  -17.09  CaMg(CO3)2
	Gypsum           -0.04   -4.62   -4.58  CaSO4:2H2O
	H2(g)           -41.33  -44.48   -3.15  H2
	H2O(g)           -1.61   -0.10    1.51  H2O
	H2S(g)         -138.95 -139.95   -1.00  H2S
	Halite           -0.06    1.52    1.58  NaCl
	O2(g)            -0.66   -3.62   -2.96  O2
	Sulfur         -103.50  -98.62    4.88  S

Time 10000. Cell 52: x=          18000	y=          18000	z=              0
Using solution 52.
Using exchange 52
Using surface 52.
Using pure phase assemblage 52.

-------------------------------Phase assemblage--------------------------------

                                                      Moles in assemblage
Phase                  SI log IAP  log KT      Initial       Final       Delta

Calcite                 0   -8.48   -8.48    1.346e-01   1.416e-01   6.981e-03
Dolomite                0  -17.09  -17.09    1.582e+00   1.579e+00  -3.638e-03

------------------------------Surface composition------------------------------

Surf          
	  1.349e-01  Surface charge, eq
Surf          
	  1.400e-01  moles
	                                   Mole                     Log
	Species               Moles    Fraction    Molality    Molality

	SurfOH2+          1.350e-01       0.964   1.350e-01      -0.870
	SurfOH            4.971e-03       0.036   4.971e-03      -2.304
	SurfHAsO4-        3.285e-05           0   3.285e-05      -4.484
	SurfH2AsO4        2.886e-05           0   2.886e-05      -4.540
	SurfO-            4.195e-06           0   4.195e-06      -5.377
	SurfOHAsO4-3      1.795e-06           0   1.795e-06      -5.746

-----------------------------Exchange composition------------------------------

X                5.000e-01 mol

	                               Equiv-    Equivalent      Log 
	Species             Moles      alents      Fraction     Gamma

	NaX               4.185e-01   4.185e-01   8.371e-01    -0.027
	CaX2              3.111e-02   6.222e-02   1.244e-01    -0.388
	MgX2              9.619e-03   1.924e-02   3.848e-02    -0.208

-----------------------------Solution composition------------------------------

	Elements           Molality       Moles

	As                3.653e-08   3.653e-08
	C                 8.014e-03   8.014e-03
	Ca                1.777e-01   1.777e-01
	Cl                3.010e+00   3.011e+00
	Mg                8.680e-02   8.681e-02
	Na                2.496e+00   2.496e+00
	S                 2.270e-03   2.270e-03

----------------------------Description of solution----------------------------

                                       pH  =   5.856      Charge balance
                                       pe  =  14.803      Adjusted to redox equilibrium
                        Activity of water  =   0.902
                           Ionic strength  =   3.279e+00
                       Mass of water (kg)  =   1.000e+00
                 Total alkalinity (eq/kg)  =   5.780e-03
                       Total CO2 (mol/kg)  =   8.014e-03
                      Temperature (deg C)  =  25.000
                  Electrical balance (eq)  =   3.888e-03
 Percent error, 100*(Cat-|An|)/(Cat+|An|)  =   0.06
                               Iterations  =   5
                                  Total H  = 1.110213e+02
                                  Total O  = 5.553893e+01

----------------------------Distribution of species----------------------------

                                                   Log       Log         Log 
   Species                 Molality    Activity  Molality  Activity     Gamma

   H+                     1.945e-06   1.392e-06    -5.711    -5.856    -0.145
   OH-                    1.292e-08   6.484e-09    -7.889    -8.188    -0.299
   H2O                    5.551e+01   9.018e-01     1.744    -0.045         0
As               3.653e-08
   H2AsO4-                3.567e-08   5.311e-08    -7.448    -7.275     0.173
   HAsO4-2                8.513e-10   4.182e-09    -9.070    -8.379     0.691
   H3AsO4                 6.040e-12   1.285e-11   -11.219   -10.891     0.328
   AsO4-3                 2.643e-16   9.498e-15   -15.578   -14.022     1.556
C(-4)            0.000e+00
   CH4                    0.000e+00   0.000e+00  -143.446  -143.119     0.328
C(4)             8.014e-03
   HCO3-                  2.271e-03   1.371e-03    -2.644    -2.863    -0.219
   CO2                    2.238e-03   4.760e-03    -2.650    -2.322     0.328
   CaHCO3+                2.078e-03   1.255e-03    -2.682    -2.901    -0.219
   NaHCO3                 8.494e-04   1.807e-03    -3.071    -2.743     0.328
   MgHCO3+                5.726e-04   8.524e-04    -3.242    -3.069     0.173
   CaCO3                  2.616e-06   5.565e-06    -5.582    -5.255     0.328
   NaCO3-                 1.354e-06   2.015e-06    -5.868    -5.696     0.173
   MgCO3                  1.101e-06   2.341e-06    -5.958    -5.631     0.328
   CO3-2                  3.473e-07   4.619e-08    -6.459    -7.335    -0.876
Ca               1.777e-01
   Ca+2                   1.751e-01   7.172e-02    -0.757    -1.144    -0.388
   CaHCO3+                2.078e-03   1.255e-03    -2.682    -2.901    -0.219
   CaSO4                  4.780e-04   1.017e-03    -3.321    -2.993     0.328
   CaCO3                  2.616e-06   5.565e-06    -5.582    -5.255     0.328
   CaHSO4+                5.572e-09   8.295e-09    -8.254    -8.081     0.173
   CaOH+                  5.178e-09   7.709e-09    -8.286    -8.113     0.173
Cl               3.010e+00
   Cl-                    3.010e+00   1.692e+00     0.479     0.228    -0.250
H(0)             0.000e+00
   H2                     0.000e+00   0.000e+00   -44.797   -44.469     0.328
Mg               8.680e-02
   Mg+2                   8.581e-02   5.313e-02    -1.066    -1.275    -0.208
   MgHCO3+                5.726e-04   8.524e-04    -3.242    -3.069     0.173
   MgSO4                  4.160e-04   8.850e-04    -3.381    -3.053     0.328
   MgCO3                  1.101e-06   2.341e-06    -5.958    -5.631     0.328
   MgOH+                  8.391e-08   1.249e-07    -7.076    -6.903     0.173
Na               2.496e+00
   Na+                    2.494e+00   2.343e+00     0.397     0.370    -0.027
   NaHCO3                 8.494e-04   1.807e-03    -3.071    -2.743     0.328
   NaSO4-                 5.606e-04   8.346e-04    -3.251    -3.079     0.173
   NaCO3-                 1.354e-06   2.015e-06    -5.868    -5.696     0.173
   NaOH                   4.713e-09   1.003e-08    -8.327    -7.999     0.328
O(0)             2.764e-04
   O2                     1.382e-04   2.940e-04    -3.860    -3.532     0.328
S(-2)            0.000e+00
   H2S                    0.000e+00   0.000e+00  -140.694  -140.366     0.328
   HS-                    0.000e+00   0.000e+00  -141.152  -141.451    -0.299
   S-2                    0.000e+00   0.000e+00  -147.584  -148.513    -0.929
S(6)             2.270e-03
   SO4-2                  8.155e-04   7.107e-05    -3.089    -4.148    -1.060
   NaSO4-                 5.606e-04   8.346e-04    -3.251    -3.079     0.173
   CaSO4                  4.780e-04   1.017e-03    -3.321    -2.993     0.328
   MgSO4                  4.160e-04   8.850e-04    -3.381    -3.053     0.328
   HSO4-                  6.462e-09   9.620e-09    -8.190    -8.017     0.173
   CaHSO4+                5.572e-09   8.295e-09    -8.254    -8.081     0.173

------------------------------Saturation indices-------------------------------

	Phase               SI log IAP  log KT

	Anhydrite        -0.93   -5.29   -4.36  CaSO4
	Aragonite        -0.14   -8.48   -8.34  CaCO3
	Calcite              0   -8.48   -8.48  CaCO3
	CH4(g)         -140.26 -143.12   -2.86  CH4
	CO2(g)           -0.85   -2.32   -1.47  CO2
	Dolomite             0  -17.09  -17.09  CaMg(CO3)2
	Gypsum           -0.80   -5.38   -4.58  CaSO4:2H2O
	H2(g)           -41.32  -44.47   -3.15  H2
	H2O(g)           -1.55   -0.04    1.51  H2O
	H2S(g)         -139.37 -140.37   -1.00  H2S
	Halite           -0.98    0.60    1.58  NaCl
	O2(g)            -0.57   -3.53   -2.96  O2
	Sulfur         -103.93  -99.05    4.88  S

Time 10000. Cell 55: x=          36000	y=          18000	z=              0
Using solution 55.
Using exchange 55
Using surface 55.
Using pure phase assemblage 55.

-------------------------------Phase assemblage--------------------------------

                                                      Moles in assemblage
Phase                  SI log IAP  log KT      Initial       Final       Delta

Calcite                 0   -8.48   -8.48    1.457e-01   1.431e-01  -2.611e-03
Dolomite                0  -17.09  -17.09    1.570e+00   1.567e+00  -2.977e-03

------------------------------Surface composition------------------------------

Surf          
	  1.050e-01  Surface charge, eq
Surf          
	  1.400e-01  moles
	                                   Mole                     Log
	Species               Moles    Fraction    Molality    Molality

	SurfOH2+          1.054e-01       0.753   1.054e-01      -0.977
	SurfOH            3.426e-02       0.245   3.425e-02      -1.465
	SurfO-            2.550e-04       0.002   2.550e-04      -3.594
	SurfOHAsO4-3      5.139e-05           0   5.139e-05      -4.289
	SurfHAsO4-        1.095e-05           0   1.095e-05      -4.960
	SurfH2AsO4        1.091e-06           0   1.091e-06      -5.962

-----------------------------Exchange composition------------------------------

X                5.000e-01 mol

	                               Equiv-    Equivalent      Log 
	Species             Moles      alents      Fraction     Gamma

	NaX               2.978e-01   2.978e-01   5.956e-01    -0.121
	CaX2              7.011e-02   1.402e-01   2.804e-01    -0.463
	MgX2              3.101e-02   6.201e-02   1.240e-01    -0.439

-----------------------------Solution composition------------------------------

	Elements           Molality       Moles

	As                9.713e-09   9.713e-09
	C                 2.021e-02   2.021e-02
	Ca                3.005e-03   3.005e-03
	Cl                1.275e-01   1.275e-01
	Mg                2.104e-03   2.104e-03
	Na                1.502e-01   1.502e-01
	S                 3.212e-04   3.212e-04

----------------------------Description of solution----------------------------

                                       pH  =   6.802      Charge balance
                                       pe  =  13.807      Adjusted to redox equilibrium
                        Activity of water  =   0.995
                           Ionic strength  =   1.563e-01
                       Mass of water (kg)  =   1.000e+00
                 Total alkalinity (eq/kg)  =   1.626e-02
                       Total CO2 (mol/kg)  =   2.021e-02
                      Temperature (deg C)  =  25.000
                  Electrical balance (eq)  =   1.605e-02
 Percent error, 100*(Cat-|An|)/(Cat+|An|)  =   5.31
                               Iterations  =   5
                                  Total H  = 1.110344e+02
                                  Total O  = 5.556748e+01

----------------------------Distribution of species----------------------------

                                                   Log       Log         Log 
   Species                 Molality    Activity  Molality  Activity     Gamma

   H+                     1.955e-07   1.578e-07    -6.709    -6.802    -0.093
   OH-                    8.679e-08   6.310e-08    -7.062    -7.200    -0.138
   H2O                    5.551e+01   9.949e-01     1.744    -0.002         0
As               9.713e-09
   HAsO4-2                5.971e-09   1.970e-09    -8.224    -8.706    -0.482
   H2AsO4-                3.741e-09   2.835e-09    -8.427    -8.547    -0.120
   AsO4-3                 4.785e-13   3.946e-14   -12.320   -13.404    -1.084
   H3AsO4                 7.502e-14   7.777e-14   -13.125   -13.109     0.016
C(-4)            0.000e+00
   CH4                    0.000e+00   0.000e+00  -142.872  -142.856     0.016
C(4)             2.021e-02
   HCO3-                  1.518e-02   1.156e-02    -1.819    -1.937    -0.118
   CO2                    3.977e-03   4.123e-03    -2.400    -2.385     0.016
   NaHCO3                 7.095e-04   7.355e-04    -3.149    -3.133     0.016
   CaHCO3+                1.868e-04   1.422e-04    -3.729    -3.847    -0.118
   MgHCO3+                1.275e-04   9.663e-05    -3.894    -4.015    -0.120
   CO3-2                  1.022e-05   3.434e-06    -4.991    -5.464    -0.473
   NaCO3-                 9.548e-06   7.236e-06    -5.020    -5.141    -0.120
   CaCO3                  5.368e-06   5.565e-06    -5.270    -5.255     0.016
   MgCO3                  2.259e-06   2.341e-06    -5.646    -5.631     0.016
Ca               3.005e-03
   Ca+2                   2.799e-03   9.646e-04    -2.553    -3.016    -0.463
   CaHCO3+                1.868e-04   1.422e-04    -3.729    -3.847    -0.118
   CaSO4                  1.413e-05   1.465e-05    -4.850    -4.834     0.016
   CaCO3                  5.368e-06   5.565e-06    -5.270    -5.255     0.016
   CaOH+                  1.331e-09   1.009e-09    -8.876    -8.996    -0.120
   CaHSO4+                1.788e-11   1.355e-11   -10.748   -10.868    -0.120
Cl               1.275e-01
   Cl-                    1.275e-01   9.319e-02    -0.895    -1.031    -0.136
H(0)             0.000e+00
   H2                     0.000e+00   0.000e+00   -44.382   -44.367     0.016
Mg               2.104e-03
   Mg+2                   1.962e-03   7.145e-04    -2.707    -3.146    -0.439
   MgHCO3+                1.275e-04   9.663e-05    -3.894    -4.015    -0.120
   MgSO4                  1.230e-05   1.275e-05    -4.910    -4.894     0.016
   MgCO3                  2.259e-06   2.341e-06    -5.646    -5.631     0.016
   MgOH+                  2.158e-08   1.635e-08    -7.666    -7.786    -0.120
Na               1.502e-01
   Na+                    1.495e-01   1.132e-01    -0.825    -0.946    -0.121
   NaHCO3                 7.095e-04   7.355e-04    -3.149    -3.133     0.016
   NaSO4-                 5.696e-05   4.317e-05    -4.244    -4.365    -0.120
   NaCO3-                 9.548e-06   7.236e-06    -5.020    -5.141    -0.120
   NaOH                   4.546e-09   4.712e-09    -8.342    -8.327     0.016
O(0)             4.306e-04
   O2                     2.153e-04   2.232e-04    -3.667    -3.651     0.016
S(-2)            0.000e+00
   HS-                    0.000e+00   0.000e+00  -141.989  -142.128    -0.138
   H2S                    0.000e+00   0.000e+00  -142.003  -141.988     0.016
   S-2                    0.000e+00   0.000e+00  -147.756  -148.244    -0.488
S(6)             3.212e-04
   SO4-2                  2.378e-04   7.612e-05    -3.624    -4.119    -0.495
   NaSO4-                 5.696e-05   4.317e-05    -4.244    -4.365    -0.120
   CaSO4                  1.413e-05   1.465e-05    -4.850    -4.834     0.016
   MgSO4                  1.230e-05   1.275e-05    -4.910    -4.894     0.016
   HSO4-                  1.541e-09   1.168e-09    -8.812    -8.933    -0.120
   CaHSO4+                1.788e-11   1.355e-11   -10.748   -10.868    -0.120

------------------------------Saturation indices-------------------------------

	Phase               SI log IAP  log KT

	Anhydrite        -2.77   -7.13   -4.36  CaSO4
	Aragonite        -0.14   -8.48   -8.34  CaCO3
	Calcite              0   -8.48   -8.48  CaCO3
	CH4(g)         -140.00 -142.86   -2.86  CH4
	CO2(g)           -0.92   -2.38   -1.47  CO2
	Dolomite             0  -17.09  -17.09  CaMg(CO3)2
	Gypsum           -2.56   -7.14   -4.58  CaSO4:2H2O
	H2(g)           -41.22  -44.37   -3.15  H2
	H2O(g)           -1.51       0    1.51  H2O
	H2S(g)         -140.99 -141.99   -1.00  H2S
	Halite           -3.56   -1.98    1.58  NaCl
	O2(g)            -0.69   -3.65   -2.96  O2
	Sulfur         -105.65 -100.77    4.88  S

Time 10000. Cell 81: x=              0	y=          30000	z=              0
Using solution 81.
Using exchange 81
Using surface 81.
Using pure phase assemblage 81.

-------------------------------Phase assemblage--------------------------------

                                                      Moles in assemblage
Phase                  SI log IAP  log KT      Initial       Final       Delta

Calcite                 0   -8.48   -8.48    1.011e-01   1.018e-01   7.639e-04
Dolomite                0  -17.09  -17.09    1.599e+00   1.599e+00  -3.783e-04

------------------------------Surface composition------------------------------

Surf          
	  1.363e-01  Surface charge, eq
Surf          
	  1.400e-01  moles
	                                   Mole                     Log
	Species               Moles    Fraction    Molality    Molality

	SurfOH2+          1.364e-01       0.974   1.364e-01      -0.865
	SurfOH            3.575e-03       0.026   3.575e-03      -2.447
	SurfH2AsO4        3.471e-05           0   3.471e-05      -4.460
	SurfHAsO4-        2.812e-05           0   2.812e-05      -4.551
	SurfO-            2.147e-06           0   2.147e-06      -5.668
	SurfOHAsO4-3      6.848e-07           0   6.848e-07      -6.164

-----------------------------Exchange composition------------------------------

X                5.000e-01 mol

	                               Equiv-    Equivalent      Log 
	Species             Moles      alents      Fraction     Gamma

	NaX               4.493e-01   4.493e-01   8.985e-01     0.222
	CaX2              2.073e-02   4.146e-02   8.293e-02     0.141
	MgX2              4.641e-03   9.283e-03   1.857e-02     0.461

-----------------------------Solution composition------------------------------

	Elements           Molality       Moles

	As                1.123e-08   1.123e-08
	C                 4.154e-03   4.154e-03
	Ca                4.421e-01   4.421e-01
	Cl                6.370e+00   6.370e+00
	Mg                1.568e-01   1.568e-01
	Na                5.185e+00   5.185e+00
	S                 4.541e-03   4.541e-03

----------------------------Description of solution----------------------------

                                       pH  =   5.709      Charge balance
                                       pe  =  14.957      Adjusted to redox equilibrium
                        Activity of water  =   0.793
                           Ionic strength  =   6.968e+00
                       Mass of water (kg)  =   1.000e+00
                 Total alkalinity (eq/kg)  =   3.899e-03
                       Total CO2 (mol/kg)  =   4.154e-03
                      Temperature (deg C)  =  25.000
                  Electrical balance (eq)  =   8.311e-05
 Percent error, 100*(Cat-|An|)/(Cat+|An|)  =      0
                               Iterations  =   4
                                  Total H  = 1.110164e+02
                                  Total O  = 5.553671e+01

----------------------------Distribution of species----------------------------

                                                   Log       Log         Log 
   Species                 Molality    Activity  Molality  Activity     Gamma

[...]
   CO3-2                  1.963e-05   8.708e-06    -4.707    -5.060    -0.353
   NaCO3-                 1.090e-05   8.811e-06    -4.963    -5.055    -0.092
   CaCO3                  5.485e-06   5.565e-06    -5.261    -5.255     0.006
   MgCO3                  2.308e-06   2.341e-06    -5.637    -5.631     0.006
Ca               9.619e-04
   Ca+2                   8.534e-04   3.804e-04    -3.069    -3.420    -0.351
   CaHCO3+                9.617e-05   7.849e-05    -4.017    -4.105    -0.088
   CaSO4                  6.874e-06   6.973e-06    -5.163    -5.157     0.006
   CaCO3                  5.485e-06   5.565e-06    -5.261    -5.255     0.006
   CaOH+                  8.947e-10   7.233e-10    -9.048    -9.141    -0.092
   CaHSO4+                4.401e-12   3.558e-12   -11.356   -11.449    -0.092
Cl               3.125e-02
   Cl-                    3.125e-02   2.494e-02    -1.505    -1.603    -0.098
H(0)             0.000e+00
   H2                     0.000e+00   0.000e+00   -44.369   -44.363     0.006
Mg               6.886e-04
   Mg+2                   6.143e-04   2.818e-04    -3.212    -3.550    -0.338
   MgHCO3+                6.595e-05   5.332e-05    -4.181    -4.273    -0.092
   MgSO4                  5.982e-06   6.069e-06    -5.223    -5.217     0.006
   MgCO3                  2.308e-06   2.341e-06    -5.637    -5.631     0.006
   MgOH+                  1.450e-08   1.172e-08    -7.839    -7.931    -0.092
Na               6.756e-02
   Na+                    6.704e-02   5.434e-02    -1.174    -1.265    -0.091
   NaHCO3                 4.871e-04   4.942e-04    -3.312    -3.306     0.006
   NaSO4-                 3.095e-05   2.502e-05    -4.509    -4.602    -0.092
   NaCO3-                 1.090e-05   8.811e-06    -4.963    -5.055    -0.092
   NaOH                   4.055e-09   4.114e-09    -8.392    -8.386     0.006
O(0)             4.358e-04
   O2                     2.179e-04   2.211e-04    -3.662    -3.655     0.006
S(-2)            0.000e+00
   HS-                    0.000e+00   0.000e+00  -142.197  -142.296    -0.099
   H2S                    0.000e+00   0.000e+00  -142.420  -142.414     0.006
   S-2                    0.000e+00   0.000e+00  -147.793  -148.154    -0.361
S(6)             2.561e-04
   SO4-2                  2.123e-04   9.188e-05    -3.673    -4.037    -0.364
   NaSO4-                 3.095e-05   2.502e-05    -4.509    -4.602    -0.092
   CaSO4                  6.874e-06   6.973e-06    -5.163    -5.157     0.006
   MgSO4                  5.982e-06   6.069e-06    -5.223    -5.217     0.006
   HSO4-                  9.623e-10   7.780e-10    -9.017    -9.109    -0.092
   CaHSO4+                4.401e-12   3.558e-12   -11.356   -11.449    -0.092

------------------------------Saturation indices-------------------------------

	Phase               SI log IAP  log KT

	Anhydrite        -3.10   -7.46   -4.36  CaSO4
	Aragonite        -0.14   -8.48   -8.34  CaCO3
	Calcite              0   -8.48   -8.48  CaCO3
	CH4(g)         -140.10 -142.96   -2.86  CH4
	CO2(g)           -1.03   -2.50   -1.47  CO2
	Dolomite             0  -17.09  -17.09  CaMg(CO3)2
	Gypsum           -2.88   -7.46   -4.58  CaSO4:2H2O
	H2(g)           -41.21  -44.36   -3.15  H2
	H2O(g)           -1.51       0    1.51  H2O
	H2S(g)         -141.42 -142.41   -1.00  H2S
	Halite           -4.45   -2.87    1.58  NaCl
	O2(g)            -0.70   -3.66   -2.96  O2
	Sulfur         -106.08 -101.20    4.88  S

Time 10000. Cell 637: x=          72000	y=          18000	z=            400
Cell is dry.
Time 10000. Cell 640: x=          90000	y=          18000	z=            400
Cell is dry.
Time 10000. Cell 657: x=              0	y=          30000	z=            400
Cell is dry.
Time 10000. Cell 660: x=          18000	y=          30000	z=            400
Cell is dry.
Time 10000. Cell 663: x=          36000	y=          30000	z=            400
Using solution 663.
Using exchange 663
Using surface 663.
Using pure phase assemblage 663.

-------------------------------Phase assemblage--------------------------------

                                                      Moles in assemblage
Phase                  SI log IAP  log KT      Initial       Final       Delta

Calcite                 0   -8.48   -8.48    1.394e-01   1.362e-01  -3.211e-03
Dolomite                0  -17.09  -17.09    1.571e+00   1.567e+00  -3.354e-03

------------------------------Surface composition------------------------------

Surf          
	  9.861e-02  Surface charge, eq
Surf          
	  1.400e-01  moles
	                                   Mole                     Log
	Species               Moles    Fraction    Molality    Molality

	SurfOH2+          9.916e-02       0.708   9.916e-02      -1.004
	SurfOH            4.040e-02       0.289   4.040e-02      -1.394
	SurfO-            3.770e-04       0.003   3.770e-04      -3.424
	SurfOHAsO4-3      5.535e-05           0   5.534e-05      -4.257
	SurfHAsO4-        7.492e-06           0   7.492e-06      -5.125
	SurfH2AsO4        5.951e-07           0   5.951e-07      -6.225

-----------------------------Exchange composition------------------------------

X                5.000e-01 mol

	                               Equiv-    Equivalent      Log 
	Species             Moles      alents      Fraction     Gamma

	NaX               2.795e-01   2.795e-01   5.589e-01    -0.109
	CaX2              7.617e-02   1.523e-01   3.047e-01    -0.420
	MgX2              3.409e-02   6.819e-02   1.364e-01    -0.401

-----------------------------Solution composition------------------------------

	Elements           Molality       Moles

	As                6.078e-09   6.078e-09
	C                 2.081e-02   2.081e-02
	Ca                1.983e-03   1.983e-03
	Cl                8.190e-02   8.190e-02
	Mg                1.403e-03   1.403e-03
	Na                1.092e-01   1.092e-01
	S                 2.903e-04   2.903e-04

----------------------------Description of solution----------------------------

                                       pH  =   6.900      Charge balance
                                       pe  =  13.707      Adjusted to redox equilibrium
                        Activity of water  =   0.996
                           Ionic strength  =   1.103e-01
                       Mass of water (kg)  =   1.000e+00
                 Total alkalinity (eq/kg)  =   1.729e-02
                       Total CO2 (mol/kg)  =   2.081e-02
                      Temperature (deg C)  =  25.000
                  Electrical balance (eq)  =   1.620e-02
 Percent error, 100*(Cat-|An|)/(Cat+|An|)  =   7.58
                               Iterations  =   5
                                  Total H  = 1.110346e+02
                                  Total O  = 5.556917e+01

----------------------------Distribution of species----------------------------

                                                   Log       Log         Log 
   Species                 Molality    Activity  Molality  Activity     Gamma

   H+                     1.532e-07   1.259e-07    -6.815    -6.900    -0.085
   OH-                    1.050e-07   7.923e-08    -6.979    -7.101    -0.122
   H2O                    5.551e+01   9.963e-01     1.744    -0.002         0
As               6.078e-09
   HAsO4-2                3.955e-09   1.434e-09    -8.403    -8.843    -0.440
   H2AsO4-                2.122e-09   1.647e-09    -8.673    -8.783    -0.110
   AsO4-3                 3.530e-13   3.603e-14   -12.452   -13.443    -0.991
   H3AsO4                 3.512e-14   3.603e-14   -13.454   -13.443     0.011
C(-4)            0.000e+00
   CH4                    0.000e+00   0.000e+00  -142.915  -142.904     0.011
C(4)             2.081e-02
   HCO3-                  1.639e-02   1.283e-02    -1.785    -1.892    -0.106
   CO2                    3.553e-03   3.644e-03    -2.449    -2.438     0.011
   NaHCO3                 5.933e-04   6.086e-04    -3.227    -3.216     0.011
   CaHCO3+                1.450e-04   1.134e-04    -3.839    -3.945    -0.106
   MgHCO3+                9.931e-05   7.707e-05    -4.003    -4.113    -0.110
   CO3-2                  1.274e-05   4.779e-06    -4.895    -5.321    -0.426
   NaCO3-                 9.674e-06   7.508e-06    -5.014    -5.124    -0.110
   CaCO3                  5.425e-06   5.565e-06    -5.266    -5.255     0.011
   MgCO3                  2.283e-06   2.341e-06    -5.642    -5.631     0.011
Ca               1.983e-03
   Ca+2                   1.822e-03   6.931e-04    -2.740    -3.159    -0.420
   CaHCO3+                1.450e-04   1.134e-04    -3.839    -3.945    -0.106
   CaSO4                  1.098e-05   1.126e-05    -4.959    -4.948     0.011
   CaCO3                  5.425e-06   5.565e-06    -5.266    -5.255     0.011
   CaOH+                  1.173e-09   9.104e-10    -8.931    -9.041    -0.110
   CaHSO4+                1.070e-11   8.305e-12   -10.971   -11.081    -0.110
Cl               8.190e-02
   Cl-                    8.190e-02   6.202e-02    -1.087    -1.207    -0.121
H(0)             0.000e+00
   H2                     0.000e+00   0.000e+00   -44.376   -44.365     0.011
Mg               1.403e-03
   Mg+2                   1.292e-03   5.134e-04    -2.889    -3.290    -0.401
   MgHCO3+                9.931e-05   7.707e-05    -4.003    -4.113    -0.110
   MgSO4                  9.555e-06   9.800e-06    -5.020    -5.009     0.011
   MgCO3                  2.283e-06   2.341e-06    -5.642    -5.631     0.011
   MgOH+                  1.901e-08   1.475e-08    -7.721    -7.831    -0.110
Na               1.092e-01
   Na+                    1.086e-01   8.436e-02    -0.964    -1.074    -0.109
   NaHCO3                 5.933e-04   6.086e-04    -3.227    -3.216     0.011
   NaSO4-                 4.436e-05   3.443e-05    -4.353    -4.463    -0.110
   NaCO3-                 9.674e-06   7.508e-06    -5.014    -5.124    -0.110
   NaOH                   4.301e-09   4.411e-09    -8.366    -8.355     0.011
O(0)             4.331e-04
   O2                     2.165e-04   2.221e-04    -3.664    -3.653     0.011
S(-2)            0.000e+00
   HS-                    0.000e+00   0.000e+00  -142.070  -142.192    -0.122
   H2S                    0.000e+00   0.000e+00  -142.162  -142.151     0.011
   S-2                    0.000e+00   0.000e+00  -147.773  -148.210    -0.438
S(6)             2.903e-04
   SO4-2                  2.254e-04   8.143e-05    -3.647    -4.089    -0.442
   NaSO4-                 4.436e-05   3.443e-05    -4.353    -4.463    -0.110
   CaSO4                  1.098e-05   1.126e-05    -4.959    -4.948     0.011
   MgSO4                  9.555e-06   9.800e-06    -5.020    -5.009     0.011
   HSO4-                  1.284e-09   9.966e-10    -8.891    -9.001    -0.110
   CaHSO4+                1.070e-11   8.305e-12   -10.971   -11.081    -0.110

------------------------------Saturation indices-------------------------------

	Phase               SI log IAP  log KT

	Anhydrite        -2.89   -7.25   -4.36  CaSO4
	Aragonite        -0.14   -8.48   -8.34  CaCO3
	Calcite              0   -8.48   -8.48  CaCO3
	CH4(g)         -140.04 -142.90   -2.86  CH4
	CO2(g)           -0.97   -2.44   -1.47  CO2
	Dolomite             0  -17.09  -17.09  CaMg(CO3)2
	Gypsum           -2.67   -7.25   -4.58  CaSO4:2H2O
	H2(g)           -41.21  -44.36   -3.15  H2
	H2O(g)           -1.51       0    1.51  H2O
	H2S(g)         -141.15 -142.15   -1.00  H2S
	Halite           -3.86   -2.28    1.58  NaCl
	O2(g)            -0.69   -3.65   -2.96  O2
	Sulfur         -105.82 -100.94    4.88  S

Time 10000. Cell 666: x=          54000	y=          30000	z=            400
Using solution 666.
Using exchange 666
Using surface 666.
Using pure phase assemblage 666.

-------------------------------Phase assemblage--------------------------------

                                                      Moles in assemblage
Phase                  SI log IAP  log KT      Initial       Final       Delta

Calcite                 0   -8.48   -8.48    1.314e-01   1.273e-01  -4.060e-03
Dolomite                0  -17.09  -17.09    1.571e+00   1.567e+00  -3.878e-03

------------------------------Surface composition------------------------------

Surf          
	  8.855e-02  Surface charge, eq
Surf          
	  1.400e-01  moles
	                                   Mole                     Log
	Species               Moles    Fraction    Molality    Molality

	SurfOH2+          8.937e-02       0.638   8.937e-02      -1.049
	SurfOH            4.993e-02       0.357   4.993e-02      -1.302
	SurfO-            6.390e-04       0.005   6.390e-04      -3.195
	SurfOHAsO4-3      5.896e-05           0   5.896e-05      -4.229
	SurfHAsO4-        4.239e-06           0   4.239e-06      -5.373
	SurfH2AsO4        2.455e-07           0   2.455e-07      -6.610

-----------------------------Exchange composition------------------------------

X                5.000e-01 mol

	                               Equiv-    Equivalent      Log 
	Species             Moles      alents      Fraction     Gamma

	NaX               2.645e-01   2.645e-01   5.290e-01    -0.094
	CaX2              8.101e-02   1.620e-01   3.241e-01    -0.361
	MgX2              3.673e-02   7.346e-02   1.469e-01    -0.347

-----------------------------Solution composition------------------------------

	Elements           Molality       Moles

	As                3.100e-09   3.100e-09
	C                 2.332e-02   2.332e-02
	Ca                1.060e-03   1.060e-03
	Cl                3.694e-02   3.694e-02
	Mg                7.576e-04   7.576e-04
	Na                7.230e-02   7.231e-02
	S                 2.599e-04   2.599e-04

----------------------------Description of solution----------------------------

                                       pH  =   7.037      Charge balance
                                       pe  =  13.570      Adjusted to redox equilibrium
                        Activity of water  =   0.998
                           Ionic strength  =   6.787e-02
                       Mass of water (kg)  =   1.000e+00
                 Total alkalinity (eq/kg)  =   2.015e-02
                       Total CO2 (mol/kg)  =   2.332e-02
                      Temperature (deg C)  =  25.000
                  Electrical balance (eq)  =   1.833e-02
 Percent error, 100*(Cat-|An|)/(Cat+|An|)  =  13.88
                               Iterations  =   6
                                  Total H  = 1.110368e+02
                                  Total O  = 5.557657e+01

----------------------------Distribution of species----------------------------

                                                   Log       Log         Log 
   Species                 Molality    Activity  Molality  Activity     Gamma

   OH-                    1.376e-07   1.088e-07    -6.861    -6.963    -0.102
   H+                     1.091e-07   9.180e-08    -6.962    -7.037    -0.075
   H2O                    5.551e+01   9.977e-01     1.744    -0.001         0
As               3.100e-09
   HAsO4-2                2.161e-09   9.017e-10    -8.665    -9.045    -0.380
   H2AsO4-                9.393e-10   7.549e-10    -9.027    -9.122    -0.095
   AsO4-3                 2.219e-13   3.106e-14   -12.654   -13.508    -0.854
   H3AsO4                 1.186e-14   1.204e-14   -13.926   -13.919     0.007
C(-4)            0.000e+00
   CH4                    0.000e+00   0.000e+00  -142.955  -142.948     0.007
C(4)             2.332e-02
   HCO3-                  1.940e-02   1.574e-02    -1.712    -1.803    -0.091
   CO2                    3.206e-03   3.256e-03    -2.494    -2.487     0.007
   NaHCO3                 5.039e-04   5.118e-04    -3.298    -3.291     0.007
   CaHCO3+                1.020e-04   8.273e-05    -3.992    -4.082    -0.091
   MgHCO3+                6.993e-05   5.620e-05    -4.155    -4.250    -0.095
   CO3-2                  1.855e-05   8.042e-06    -4.732    -5.095    -0.363
   NaCO3-                 1.077e-05   8.658e-06    -4.968    -5.063    -0.095
   CaCO3                  5.479e-06   5.565e-06    -5.261    -5.255     0.007
   MgCO3                  2.305e-06   2.341e-06    -5.637    -5.631     0.007
Ca               1.060e-03
   Ca+2                   9.449e-04   4.119e-04    -3.025    -3.385    -0.361
   CaHCO3+                1.020e-04   8.273e-05    -3.992    -4.082    -0.091
   CaSO4                  7.302e-06   7.417e-06    -5.137    -5.130     0.007
   CaCO3                  5.479e-06   5.565e-06    -5.261    -5.255     0.007
   CaOH+                  9.244e-10   7.430e-10    -9.034    -9.129    -0.095
   CaHSO4+                4.963e-12   3.989e-12   -11.304   -11.399    -0.095
Cl               3.694e-02
   Cl-                    3.694e-02   2.927e-02    -1.433    -1.534    -0.101
H(0)             0.000e+00
   H2                     0.000e+00   0.000e+00   -44.370   -44.363     0.007
Mg               7.576e-04
   Mg+2                   6.790e-04   3.051e-04    -3.168    -3.516    -0.347
   MgHCO3+                6.993e-05   5.620e-05    -4.155    -4.250    -0.095
   MgSO4                  6.355e-06   6.455e-06    -5.197    -5.190     0.007
   MgCO3                  2.305e-06   2.341e-06    -5.637    -5.631     0.007
   MgOH+                  1.498e-08   1.204e-08    -7.824    -7.919    -0.095
Na               7.230e-02
   Na+                    7.176e-02   5.782e-02    -1.144    -1.238    -0.094
   NaHCO3                 5.039e-04   5.118e-04    -3.298    -3.291     0.007
   NaSO4-                 3.254e-05   2.615e-05    -4.488    -4.582    -0.095
   NaCO3-                 1.077e-05   8.658e-06    -4.968    -5.063    -0.095
   NaOH                   4.088e-09   4.152e-09    -8.389    -8.382     0.007
O(0)             4.355e-04
   O2                     2.177e-04   2.212e-04    -3.662    -3.655     0.007
S(-2)            0.000e+00
   HS-                    0.000e+00   0.000e+00  -142.179  -142.281    -0.102
   H2S                    0.000e+00   0.000e+00  -142.383  -142.377     0.007
   S-2                    0.000e+00   0.000e+00  -147.790  -148.162    -0.372
S(6)             2.599e-04
   SO4-2                  2.137e-04   9.025e-05    -3.670    -4.045    -0.374
   NaSO4-                 3.254e-05   2.615e-05    -4.488    -4.582    -0.095
   CaSO4                  7.302e-06   7.417e-06    -5.137    -5.130     0.007
   MgSO4                  6.355e-06   6.455e-06    -5.197    -5.190     0.007
   HSO4-                  1.002e-09   8.055e-10    -8.999    -9.094    -0.095
   CaHSO4+                4.963e-12   3.989e-12   -11.304   -11.399    -0.095

------------------------------Saturation indices-------------------------------

	Phase               SI log IAP  log KT

	Anhydrite        -3.07   -7.43   -4.36  CaSO4
	Aragonite        -0.14   -8.48   -8.34  CaCO3
	Calcite              0   -8.48   -8.48  CaCO3
	CH4(g)         -140.09 -142.95   -2.86  CH4
	CO2(g)           -1.02   -2.49   -1.47  CO2
	Dolomite             0  -17.09  -17.09  CaMg(CO3)2
	Gypsum           -2.85   -7.43   -4.58  CaSO4:2H2O
	H2(g)           -41.21  -44.36   -3.15  H2
	H2O(g)           -1.51       0    1.51  H2O
	H2S(g)         -141.38 -142.38   -1.00  H2S
	Halite           -4.35   -2.77    1.58  NaCl
	O2(g)            -0.70   -3.66   -2.96  O2
	Sulfur         -106.05 -101.16    4.88  S

Time 10000. Cell 669: x=          72000	y=          30000	z=            400
Cell is dry.
Time 10000. Cell 672: x=          90000	y=          30000	z=            400
Cell is dry.
Time 10000. Cell 705: x=              0	y=          48000	z=            400
Cell is dry.
Time 10000. Cell 708: x=          18000	y=          48000	z=            400
Cell is dry.
Time 10000. Cell 711: x=          36000	y=          48000	z=            400
Cell is dry.
Time 10000. Cell 714: x=          54000	y=          48000	z=            400
Cell is dry.
Time 10000. Cell 717: x=          72000	y=          48000	z=            400
Cell is dry.
Time 10000. Cell 720: x=          90000	y=          48000	z=            400
Cell is dry.
