Output file:    ex4_noedl.O.chem
Chemistry file: ex4_noedl.chem.dat
Database file:  phast.dat

------------------
Reading data base.
------------------

	SOLUTION_MASTER_SPECIES
	SOLUTION_SPECIES
	PHASES
	EXCHANGE_MASTER_SPECIES
	EXCHANGE_SPECIES
	SURFACE_MASTER_SPECIES
	SURFACE_SPECIES
	RATES
	END
------------------------------------
Reading input data for simulation 1.
------------------------------------

	SURFACE_MASTER_SPECIES
	        Surf    SurfOH
	SURFACE_SPECIES
	        SurfOH = SurfOH
	                log_k   0.0
	        SurfOH  + H+ = SurfOH2+
	                log_k   7.29
	        SurfOH = SurfO- + H+
	                log_k   -8.93
	        SurfOH + AsO4-3 + 3H+ = SurfH2AsO4 + H2O
	                log_k   29.31
	        SurfOH + AsO4-3 + 2H+ = SurfHAsO4- + H2O
	                log_k   23.51
	        SurfOH + AsO4-3 = SurfOHAsO4-3
	                log_k   10.58
	SOLUTION_MASTER_SPECIES
	        As       H3AsO4        -1.0     74.9216         74.9216
	SOLUTION_SPECIES
		H3AsO4 = H2AsO4- + H+
		log_k	-2.3
		delta_h	-7.066	kJ
		H3AsO4 = HAsO4-2 + 2H+
		log_k	-9.46
		delta_h	-3.846	kJ
		H3AsO4 = AsO4-3 + 3H+
		log_k	-21.11
		delta_h	14.354	kJ
	        H3AsO4 = H2AsO4- + H+ 
	        log_k           -2.243
	        delta_h -1.69 kcal
	        H3AsO4 = HAsO4-2 + 2H+ 
	        log_k           -9.001
	        delta_h -0.92 kcal
	        H3AsO4 = AsO4-3 + 3H+
	        log_k           -20.597
	        delta_h 3.43 kcal
	        H3AsO4 = H3AsO4
	        log_k           0.0
	        H3AsO4 = AsO4-3 + 3H+
	        log_k   -20.7
	        H+ + AsO4-3 = HAsO4-2
	        log_k   11.50
	        2H+ + AsO4-3 = H2AsO4-
	        log_k           18.46
	SOLUTION 1 20 x precipitation
	        pH      4.6
	        pe      4.0     O2(g)   -0.7
	        temp    25.
	        units   mmol/kgw
	        Ca      .191625
	        Mg      .035797
	        Na      .122668
	        Cl      .133704
	        C       .01096
	        S       .235153         charge
	END
-------------------------------------------
Beginning of initial solution calculations.
-------------------------------------------

Initial solution 1.	20 x precipitation

-----------------------------Solution composition------------------------------

	Elements           Molality       Moles

	C                 1.096e-05   1.096e-05
	Ca                1.916e-04   1.916e-04
	Cl                1.337e-04   1.337e-04
	Mg                3.580e-05   3.580e-05
	Na                1.227e-04   1.227e-04
	S                 2.351e-04   2.351e-04  Charge balance

----------------------------Description of solution----------------------------

                                       pH  =   4.600    
                                       pe  =  16.005      Equilibrium with O2(g)
                        Activity of water  =   1.000
                           Ionic strength  =   1.035e-03
                       Mass of water (kg)  =   1.000e+00
                 Total alkalinity (eq/kg)  =  -2.630e-05
                       Total CO2 (mol/kg)  =   1.096e-05
                      Temperature (deg C)  =  25.000
                  Electrical balance (eq)  =   7.111e-16
 Percent error, 100*(Cat-|An|)/(Cat+|An|)  =   0.00
                               Iterations  =   9
                                  Total H  = 1.110125e+02
                                  Total O  = 5.550762e+01

----------------------------Distribution of species----------------------------

                                                   Log       Log         Log 
   Species                 Molality    Activity  Molality  Activity     Gamma

   H+                     2.600e-05   2.512e-05    -4.585    -4.600    -0.015
   OH-                    4.133e-10   3.985e-10    -9.384    -9.400    -0.016
   H2O                    5.551e+01   1.000e+00     1.744    -0.000     0.000
C(-4)            0.000e+00
   CH4                    0.000e+00   0.000e+00  -145.418  -145.418     0.000
C(4)             1.096e-05
   CO2                    1.076e-05   1.076e-05    -4.968    -4.968     0.000
   HCO3-                  1.975e-07   1.906e-07    -6.704    -6.720    -0.015
   CaHCO3+                4.048e-10   3.907e-10    -9.393    -9.408    -0.015
   MgHCO3+                6.905e-11   6.660e-11   -10.161   -10.177    -0.016
   NaHCO3                 1.267e-11   1.267e-11   -10.897   -10.897     0.000
   CO3-2                  4.105e-13   3.559e-13   -12.387   -12.449    -0.062
   CaCO3                  9.601e-14   9.603e-14   -13.018   -13.018     0.000
   MgCO3                  1.014e-14   1.014e-14   -13.994   -13.994     0.000
   NaCO3-                 8.122e-16   7.833e-16   -15.090   -15.106    -0.016
Ca               1.916e-04
   Ca+2                   1.853e-04   1.606e-04    -3.732    -3.794    -0.062
   CaSO4                  6.296e-06   6.297e-06    -5.201    -5.201     0.000
   CaHSO4+                9.608e-10   9.267e-10    -9.017    -9.033    -0.016
   CaHCO3+                4.048e-10   3.907e-10    -9.393    -9.408    -0.015
   CaOH+                  1.100e-12   1.061e-12   -11.958   -11.974    -0.016
   CaCO3                  9.601e-14   9.603e-14   -13.018   -13.018     0.000
Cl               1.337e-04
   Cl-                    1.337e-04   1.289e-04    -3.874    -3.890    -0.016
H(0)             0.000e+00
   H2                     0.000e+00   0.000e+00   -44.360   -44.360     0.000
Mg               3.580e-05
   Mg+2                   3.442e-05   2.986e-05    -4.463    -4.525    -0.062
   MgSO4                  1.375e-06   1.375e-06    -5.862    -5.862     0.000
   MgHCO3+                6.905e-11   6.660e-11   -10.161   -10.177    -0.016
   MgOH+                  4.475e-12   4.316e-12   -11.349   -11.365    -0.016
   MgCO3                  1.014e-14   1.014e-14   -13.994   -13.994     0.000
Na               1.227e-04
   Na+                    1.225e-04   1.182e-04    -3.912    -3.927    -0.016
   NaSO4-                 1.207e-07   1.164e-07    -6.918    -6.934    -0.016
   NaHCO3                 1.267e-11   1.267e-11   -10.897   -10.897     0.000
   NaOH                   3.109e-14   3.109e-14   -13.507   -13.507     0.000
   NaCO3-                 8.122e-16   7.833e-16   -15.090   -15.106    -0.016
O(0)             4.374e-04
   O2                     2.187e-04   2.188e-04    -3.660    -3.660     0.000
S(-2)            0.000e+00
   H2S                    0.000e+00   0.000e+00  -137.155  -137.155     0.000
   HS-                    0.000e+00   0.000e+00  -139.481  -139.497    -0.016
   S-2                    0.000e+00   0.000e+00  -147.752  -147.815    -0.062
S(6)             2.351e-04
   SO4-2                  2.268e-04   1.965e-04    -3.644    -3.707    -0.062
   CaSO4                  6.296e-06   6.297e-06    -5.201    -5.201     0.000
   MgSO4                  1.375e-06   1.375e-06    -5.862    -5.862     0.000
   HSO4-                  4.975e-07   4.798e-07    -6.303    -6.319    -0.016
   NaSO4-                 1.207e-07   1.164e-07    -6.918    -6.934    -0.016
   CaHSO4+                9.608e-10   9.267e-10    -9.017    -9.033    -0.016

------------------------------Saturation indices-------------------------------

	Phase               SI log IAP  log KT

	Anhydrite        -3.14   -7.50   -4.36  CaSO4
	Aragonite        -7.91  -16.24   -8.34  CaCO3
	Calcite          -7.76  -16.24   -8.48  CaCO3
	CH4(g)         -142.56 -145.42   -2.86  CH4
	CO2(g)           -3.50   -4.97   -1.47  CO2
	Dolomite        -16.13  -33.22  -17.09  CaMg(CO3)2
	Gypsum           -2.92   -7.50   -4.58  CaSO4:2H2O
	H2(g)           -41.21  -44.36   -3.15  H2
	H2O(g)           -1.51   -0.00    1.51  H2O
	H2S(g)         -136.16 -137.16   -1.00  H2S
	Halite           -9.40   -7.82    1.58  NaCl
	O2(g)            -0.70   -3.66   -2.96  O2
	Sulfur         -100.83  -95.95    4.88  S

------------------
End of simulation.
------------------

------------------------------------
Reading input data for simulation 2.
------------------------------------

	USE solution 1
	EQUILIBRIUM_PHASES 1
	        Dolomite        0.0     1.6
	        Calcite         0.0     0.1
	        CO2(g)          -1.5    100.
	SAVE solution 1
	END
-----------------------------------------
Beginning of batch-reaction calculations.
-----------------------------------------

Reaction step 1.

-------------------------------Phase assemblage--------------------------------

                                                      Moles in assemblage
Phase                  SI log IAP  log KT      Initial       Final       Delta

Calcite              0.00   -8.48   -8.48    1.000e-01   9.966e-02  -3.441e-04
CO2(g)              -1.50   -2.97   -1.47    1.000e+02   1.000e+02  -4.066e-03
Dolomite             0.00  -17.09  -17.09    1.600e+00   1.599e+00  -1.349e-03

-----------------------------Solution composition------------------------------

	Elements           Molality       Moles

	C                 7.119e-03   7.119e-03
	Ca                1.885e-03   1.884e-03
	Cl                1.337e-04   1.337e-04
	Mg                1.385e-03   1.385e-03
	Na                1.227e-04   1.227e-04
	S                 2.351e-04   2.351e-04

----------------------------Description of solution----------------------------

                                       pH  =   7.047      Charge balance
                                       pe  =  13.558      Adjusted to redox equilibrium
                        Activity of water  =   1.000
                           Ionic strength  =   9.629e-03
                       Mass of water (kg)  =   9.999e-01
                 Total alkalinity (eq/kg)  =   6.057e-03
                       Total CO2 (mol/kg)  =   7.119e-03
                      Temperature (deg C)  =  25.000
                  Electrical balance (eq)  =   2.136e-15
 Percent error, 100*(Cat-|An|)/(Cat+|An|)  =   0.00
                               Iterations  =   9
                                  Total H  = 1.110125e+02
                                  Total O  = 5.552487e+01

----------------------------Distribution of species----------------------------

                                                   Log       Log         Log 
   Species                 Molality    Activity  Molality  Activity     Gamma

   OH-                    1.236e-07   1.115e-07    -6.908    -6.953    -0.045
   H+                     9.814e-08   8.977e-08    -7.008    -7.047    -0.039
   H2O                    5.551e+01   9.998e-01     1.744    -0.000     0.000
C(-4)            0.000e+00
   CH4                    0.000e+00   0.000e+00  -143.421  -143.420     0.001
C(4)             7.119e-03
   HCO3-                  5.883e-03   5.333e-03    -2.230    -2.273    -0.043
   CO2                    1.074e-03   1.077e-03    -2.969    -2.968     0.001
   CaHCO3+                8.923e-05   8.090e-05    -4.049    -4.092    -0.043
   MgHCO3+                6.082e-05   5.496e-05    -4.216    -4.260    -0.044
   CaCO3                  5.553e-06   5.565e-06    -5.256    -5.255     0.001
   CO3-2                  4.124e-06   2.786e-06    -5.385    -5.555    -0.170
   MgCO3                  2.336e-06   2.341e-06    -5.631    -5.631     0.001
   NaHCO3                 3.310e-07   3.317e-07    -6.480    -6.479     0.001
   NaCO3-                 6.350e-09   5.738e-09    -8.197    -8.241    -0.044
Ca               1.885e-03
   Ca+2                   1.761e-03   1.189e-03    -2.754    -2.925    -0.171
   CaHCO3+                8.923e-05   8.090e-05    -4.049    -4.092    -0.043
   CaSO4                  2.881e-05   2.888e-05    -4.540    -4.539     0.001
   CaCO3                  5.553e-06   5.565e-06    -5.256    -5.255     0.001
   CaOH+                  2.432e-09   2.198e-09    -8.614    -8.658    -0.044
   CaHSO4+                1.681e-11   1.519e-11   -10.775   -10.819    -0.044
Cl               1.337e-04
   Cl-                    1.337e-04   1.206e-04    -3.874    -3.919    -0.045
H(0)             0.000e+00
   H2                     0.000e+00   0.000e+00   -44.361   -44.361     0.001
Mg               1.385e-03
   Mg+2                   1.296e-03   8.807e-04    -2.887    -3.055    -0.168
   MgHCO3+                6.082e-05   5.496e-05    -4.216    -4.260    -0.044
   MgSO4                  2.507e-05   2.513e-05    -4.601    -4.600     0.001
   MgCO3                  2.336e-06   2.341e-06    -5.631    -5.631     0.001
   MgOH+                  3.941e-08   3.561e-08    -7.404    -7.448    -0.044
Na               1.227e-04
   Na+                    1.223e-04   1.106e-04    -3.913    -3.956    -0.044
   NaHCO3                 3.310e-07   3.317e-07    -6.480    -6.479     0.001
   NaSO4-                 7.467e-08   6.747e-08    -7.127    -7.171    -0.044
   NaCO3-                 6.350e-09   5.738e-09    -8.197    -8.241    -0.044
   NaOH                   8.120e-12   8.138e-12   -11.090   -11.089     0.001
O(0)             4.375e-04
   O2                     2.187e-04   2.192e-04    -3.660    -3.659     0.001
S(-2)            0.000e+00
   HS-                    0.000e+00   0.000e+00  -142.108  -142.153    -0.045
   H2S                    0.000e+00   0.000e+00  -142.259  -142.258     0.001
   S-2                    0.000e+00   0.000e+00  -147.852  -148.024    -0.172
S(6)             2.351e-04
   SO4-2                  1.811e-04   1.217e-04    -3.742    -3.915    -0.173
   CaSO4                  2.881e-05   2.888e-05    -4.540    -4.539     0.001
   MgSO4                  2.507e-05   2.513e-05    -4.601    -4.600     0.001
   NaSO4-                 7.467e-08   6.747e-08    -7.127    -7.171    -0.044
   HSO4-                  1.176e-09   1.062e-09    -8.930    -8.974    -0.044
   CaHSO4+                1.681e-11   1.519e-11   -10.775   -10.819    -0.044

------------------------------Saturation indices-------------------------------

	Phase               SI log IAP  log KT

	Anhydrite        -2.48   -6.84   -4.36  CaSO4
	Aragonite        -0.14   -8.48   -8.34  CaCO3
	Calcite           0.00   -8.48   -8.48  CaCO3
	CH4(g)         -140.56 -143.42   -2.86  CH4
	CO2(g)           -1.50   -2.97   -1.47  CO2
	Dolomite          0.00  -17.09  -17.09  CaMg(CO3)2
	Gypsum           -2.26   -6.84   -4.58  CaSO4:2H2O
	H2(g)           -41.21  -44.36   -3.15  H2
	H2O(g)           -1.51   -0.00    1.51  H2O
	H2S(g)         -141.26 -142.26   -1.00  H2S
	Halite           -9.46   -7.87    1.58  NaCl
	O2(g)            -0.70   -3.66   -2.96  O2
	Sulfur         -105.93 -101.05    4.88  S

------------------
End of simulation.
------------------

------------------------------------
Reading input data for simulation 3.
------------------------------------

	SOLUTION 2 Brine
	        pH      5.713
	        pe      4.0     O2(g)   -0.7
	        temp    25.
	        units   mol/kgw
	        Ca      .4655
	        Mg      .1609
	        Na      5.402
	        Cl      6.642           charge
	        C       .00396
	        S       .004725
	        As      .01 umol/kgw
	END
-------------------------------------------
Beginning of initial solution calculations.
-------------------------------------------

Initial solution 2.	Brine

-----------------------------Solution composition------------------------------

	Elements           Molality       Moles

	As                1.000e-08   1.000e-08
	C                 3.960e-03   3.960e-03
	Ca                4.655e-01   4.655e-01
	Cl                6.642e+00   6.642e+00  Charge balance
	Mg                1.609e-01   1.609e-01
	Na                5.402e+00   5.402e+00
	S                 4.725e-03   4.725e-03

----------------------------Description of solution----------------------------

                                       pH  =   5.713    
                                       pe  =  14.945      Equilibrium with O2(g)
                        Activity of water  =   0.785
                           Ionic strength  =   7.266e+00
                       Mass of water (kg)  =   1.000e+00
                 Total alkalinity (eq/kg)  =   3.758e-03
                       Total CO2 (mol/kg)  =   3.960e-03
                      Temperature (deg C)  =  25.000
                  Electrical balance (eq)  =   1.027e-12
 Percent error, 100*(Cat-|An|)/(Cat+|An|)  =   0.00
                               Iterations  =  11
                                  Total H  = 1.110162e+02
                                  Total O  = 5.553688e+01

----------------------------Distribution of species----------------------------

                                                   Log       Log         Log 
   Species                 Molality    Activity  Molality  Activity     Gamma

   H+                     2.755e-06   1.936e-06    -5.560    -5.713    -0.153
   OH-                    8.773e-09   4.056e-09    -8.057    -8.392    -0.335
   H2O                    5.551e+01   7.846e-01     1.744    -0.105     0.000
As               1.000e-08
   H2AsO4-                9.993e-09   5.476e-08    -8.000    -7.262     0.739
   H3AsO4                 3.458e-12   1.843e-11   -11.461   -10.735     0.727
   HAsO4-2                3.440e-12   3.100e-09   -11.463    -8.509     2.955
   AsO4-3                 1.137e-21   5.063e-15   -20.944   -14.296     6.649
C(-4)            0.000e+00
   CH4                    0.000e+00   0.000e+00  -144.357  -143.631     0.727
C(4)             3.960e-03
   CaHCO3+                3.015e-03   1.745e-03    -2.521    -2.758    -0.238
   HCO3-                  3.336e-04   1.931e-04    -3.477    -3.714    -0.238
   MgHCO3+                2.161e-04   1.184e-03    -3.665    -2.927     0.739
   CO2                    2.010e-04   1.071e-03    -3.697    -2.970     0.727
   NaHCO3                 1.924e-04   1.025e-03    -3.716    -2.989     0.727
   CaCO3                  1.044e-06   5.564e-06    -5.981    -5.255     0.727
   MgCO3                  4.389e-07   2.339e-06    -6.358    -5.631     0.727
   NaCO3-                 1.500e-07   8.221e-07    -6.824    -6.085     0.739
   CO3-2                  4.170e-08   4.676e-09    -7.380    -8.330    -0.950
Ca               4.655e-01
   Ca+2                   4.609e-01   7.084e-01    -0.336    -0.150     0.187
   CaHCO3+                3.015e-03   1.745e-03    -2.521    -2.758    -0.238
   CaSO4                  1.600e-03   8.528e-03    -2.796    -2.069     0.727
   CaCO3                  1.044e-06   5.564e-06    -5.981    -5.255     0.727
   CaHSO4+                1.766e-08   9.674e-08    -7.753    -7.014     0.739
   CaOH+                  8.693e-09   4.763e-08    -8.061    -7.322     0.739
Cl               6.642e+00
   Cl-                    6.642e+00   3.946e+00     0.822     0.596    -0.226
H(0)             0.000e+00
   H2                     0.000e+00   0.000e+00   -45.192   -44.465     0.727
Mg               1.609e-01
   Mg+2                   1.593e-01   5.242e-01    -0.798    -0.280     0.517
   MgSO4                  1.391e-03   7.415e-03    -2.857    -2.130     0.727
   MgHCO3+                2.161e-04   1.184e-03    -3.665    -2.927     0.739
   MgCO3                  4.389e-07   2.339e-06    -6.358    -5.631     0.727
   MgOH+                  1.407e-07   7.712e-07    -6.852    -6.113     0.739
Na               5.402e+00
   Na+                    5.401e+00   9.442e+00     0.732     0.975     0.243
   NaSO4-                 5.211e-04   2.855e-03    -3.283    -2.544     0.739
   NaHCO3                 1.924e-04   1.025e-03    -3.716    -2.989     0.727
   NaCO3-                 1.500e-07   8.221e-07    -6.824    -6.085     0.739
   NaOH                   4.743e-09   2.528e-08    -8.324    -7.597     0.727
O(0)             8.211e-05
   O2                     4.106e-05   2.188e-04    -4.387    -3.660     0.727
S(-2)            0.000e+00
   H2S                    0.000e+00   0.000e+00  -140.620  -139.894     0.727
   HS-                    0.000e+00   0.000e+00  -140.787  -141.122    -0.335
   S-2                    0.000e+00   0.000e+00  -147.315  -148.327    -1.012
S(6)             4.725e-03
   CaSO4                  1.600e-03   8.528e-03    -2.796    -2.069     0.727
   MgSO4                  1.391e-03   7.415e-03    -2.857    -2.130     0.727
   SO4-2                  1.212e-03   6.034e-05    -2.916    -4.219    -1.303
   NaSO4-                 5.211e-04   2.855e-03    -3.283    -2.544     0.739
   CaHSO4+                1.766e-08   9.674e-08    -7.753    -7.014     0.739
   HSO4-                  2.073e-09   1.136e-08    -8.683    -7.945     0.739

------------------------------Saturation indices-------------------------------

	Phase               SI log IAP  log KT

	Anhydrite        -0.01   -4.37   -4.36  CaSO4
	Aragonite        -0.14   -8.48   -8.34  CaCO3
	Calcite          -0.00   -8.48   -8.48  CaCO3
	CH4(g)         -140.77 -143.63   -2.86  CH4
	CO2(g)           -1.50   -2.97   -1.47  CO2
	Dolomite         -0.00  -17.09  -17.09  CaMg(CO3)2
	Gypsum            0.00   -4.58   -4.58  CaSO4:2H2O
	H2(g)           -41.32  -44.47   -3.15  H2
	H2O(g)           -1.62   -0.11    1.51  H2O
	H2S(g)         -138.90 -139.89   -1.00  H2S
	Halite           -0.01    1.57    1.58  NaCl
	O2(g)            -0.70   -3.66   -2.96  O2
	Sulfur         -103.46  -98.58    4.88  S

------------------
End of simulation.
------------------

------------------------------------
Reading input data for simulation 4.
------------------------------------

	USE solution 2
	EQUILIBRIUM_PHASES 2
	        Dolomite        0.0     1.6
	        Calcite         0.0     0.1
	SAVE solution 2
	END
-----------------------------------------
Beginning of batch-reaction calculations.
-----------------------------------------

Reaction step 1.

-------------------------------Phase assemblage--------------------------------

                                                      Moles in assemblage
Phase                  SI log IAP  log KT      Initial       Final       Delta

Calcite              0.00   -8.48   -8.48    1.000e-01   1.002e-01   2.185e-04
Dolomite             0.00  -17.09  -17.09    1.600e+00   1.600e+00  -1.093e-04

-----------------------------Solution composition------------------------------

	Elements           Molality       Moles

	As                1.000e-08   1.000e-08
	C                 3.960e-03   3.960e-03
	Ca                4.654e-01   4.654e-01
	Cl                6.642e+00   6.642e+00
	Mg                1.610e-01   1.610e-01
	Na                5.402e+00   5.402e+00
	S                 4.725e-03   4.725e-03

----------------------------Description of solution----------------------------

                                       pH  =   5.713      Charge balance
                                       pe  =  14.945      Adjusted to redox equilibrium
                        Activity of water  =   0.785
                           Ionic strength  =   7.266e+00
                       Mass of water (kg)  =   1.000e+00
                 Total alkalinity (eq/kg)  =   3.758e-03
                       Total CO2 (mol/kg)  =   3.960e-03
                      Temperature (deg C)  =  25.000
                  Electrical balance (eq)  =   1.033e-12
 Percent error, 100*(Cat-|An|)/(Cat+|An|)  =   0.00
                               Iterations  =   2
                                  Total H  = 1.110162e+02
                                  Total O  = 5.553688e+01

----------------------------Distribution of species----------------------------

                                                   Log       Log         Log 
   Species                 Molality    Activity  Molality  Activity     Gamma

   H+                     2.754e-06   1.936e-06    -5.560    -5.713    -0.153
   OH-                    8.776e-09   4.057e-09    -8.057    -8.392    -0.335
   H2O                    5.551e+01   7.846e-01     1.744    -0.105     0.000
As               1.000e-08
   H2AsO4-                9.993e-09   5.476e-08    -8.000    -7.262     0.739
   H3AsO4                 3.457e-12   1.842e-11   -11.461   -10.735     0.727
   HAsO4-2                3.441e-12   3.101e-09   -11.463    -8.508     2.955
   AsO4-3                 1.138e-21   5.066e-15   -20.944   -14.295     6.649
C(-4)            0.000e+00
   CH4                    0.000e+00   0.000e+00  -144.357  -143.631     0.727
C(4)             3.960e-03
   CaHCO3+                3.015e-03   1.745e-03    -2.521    -2.758    -0.238
   HCO3-                  3.337e-04   1.931e-04    -3.477    -3.714    -0.238
   MgHCO3+                2.163e-04   1.185e-03    -3.665    -2.926     0.739
   CO2                    2.010e-04   1.071e-03    -3.697    -2.970     0.727
   NaHCO3                 1.924e-04   1.025e-03    -3.716    -2.989     0.727
   CaCO3                  1.044e-06   5.565e-06    -5.981    -5.255     0.727
   MgCO3                  4.394e-07   2.341e-06    -6.357    -5.631     0.727
   NaCO3-                 1.501e-07   8.224e-07    -6.824    -6.085     0.739
   CO3-2                  4.171e-08   4.678e-09    -7.380    -8.330    -0.950
Ca               4.654e-01
   Ca+2                   4.608e-01   7.082e-01    -0.337    -0.150     0.187
   CaHCO3+                3.015e-03   1.745e-03    -2.521    -2.758    -0.238
   CaSO4                  1.600e-03   8.525e-03    -2.796    -2.069     0.727
   CaCO3                  1.044e-06   5.565e-06    -5.981    -5.255     0.727
   CaHSO4+                1.764e-08   9.668e-08    -7.753    -7.015     0.739
   CaOH+                  8.693e-09   4.763e-08    -8.061    -7.322     0.739
Cl               6.642e+00
   Cl-                    6.642e+00   3.946e+00     0.822     0.596    -0.226
H(0)             0.000e+00
   H2                     0.000e+00   0.000e+00   -45.192   -44.465     0.727
Mg               1.610e-01
   Mg+2                   1.594e-01   5.246e-01    -0.798    -0.280     0.517
   MgSO4                  1.392e-03   7.419e-03    -2.856    -2.130     0.727
   MgHCO3+                2.163e-04   1.185e-03    -3.665    -2.926     0.739
   MgCO3                  4.394e-07   2.341e-06    -6.357    -5.631     0.727
   MgOH+                  1.409e-07   7.719e-07    -6.851    -6.112     0.739
Na               5.402e+00
   Na+                    5.401e+00   9.442e+00     0.732     0.975     0.243
   NaSO4-                 5.210e-04   2.855e-03    -3.283    -2.544     0.739
   NaHCO3                 1.924e-04   1.025e-03    -3.716    -2.989     0.727
   NaCO3-                 1.501e-07   8.224e-07    -6.824    -6.085     0.739
   NaOH                   4.744e-09   2.528e-08    -8.324    -7.597     0.727
O(0)             8.211e-05
   O2                     4.106e-05   2.188e-04    -4.387    -3.660     0.727
S(-2)            0.000e+00
   H2S                    0.000e+00   0.000e+00  -140.621  -139.894     0.727
   HS-                    0.000e+00   0.000e+00  -140.788  -141.123    -0.335
   S-2                    0.000e+00   0.000e+00  -147.315  -148.327    -1.012
S(6)             4.725e-03
   CaSO4                  1.600e-03   8.525e-03    -2.796    -2.069     0.727
   MgSO4                  1.392e-03   7.419e-03    -2.856    -2.130     0.727
   SO4-2                  1.212e-03   6.033e-05    -2.917    -4.219    -1.303
   NaSO4-                 5.210e-04   2.855e-03    -3.283    -2.544     0.739
   CaHSO4+                1.764e-08   9.668e-08    -7.753    -7.015     0.739
   HSO4-                  2.072e-09   1.136e-08    -8.684    -7.945     0.739

------------------------------Saturation indices-------------------------------

	Phase               SI log IAP  log KT

	Anhydrite        -0.01   -4.37   -4.36  CaSO4
	Aragonite        -0.14   -8.48   -8.34  CaCO3
	Calcite           0.00   -8.48   -8.48  CaCO3
	CH4(g)         -140.77 -143.63   -2.86  CH4
	CO2(g)           -1.50   -2.97   -1.47  CO2
	Dolomite          0.00  -17.09  -17.09  CaMg(CO3)2
	Gypsum            0.00   -4.58   -4.58  CaSO4:2H2O
	H2(g)           -41.32  -44.47   -3.15  H2
	H2O(g)           -1.62   -0.11    1.51  H2O
	H2S(g)         -138.90 -139.89   -1.00  H2S
	Halite           -0.01    1.57    1.58  NaCl
	O2(g)            -0.70   -3.66   -2.96  O2
	Sulfur         -103.46  -98.58    4.88  S

------------------
End of simulation.
------------------

------------------------------------
Reading input data for simulation 5.
------------------------------------

	EXCHANGE 2
	        equilibrate with solution 2
	        X       0.5
	SURFACE 2
		no_edl
	        equilibrate solution 2
	        SurfOH          0.14     600.    30.
	END
-------------------------------------------------------
Beginning of initial exchange-composition calculations.
-------------------------------------------------------

Exchange 2.	

X                5.000e-01 mol

	                               Equiv-    Equivalent      Log 
	Species             Moles      alents      Fraction     Gamma

	NaX               4.507e-01   4.507e-01   9.014e-01     0.243
	CaX2              2.024e-02   4.048e-02   8.096e-02     0.187
	MgX2              4.418e-03   8.836e-03   1.767e-02     0.517

------------------------------------------------------
Beginning of initial surface-composition calculations.
------------------------------------------------------

Surface 2.	

Surf          
	  1.363e-01  Surface charge, eq
Surf          
	  1.400e-01  moles
	                                   Mole                     Log
	Species               Moles    Fraction    Molality    Molality

	SurfOH2+          1.363e-01       0.974   1.363e-01      -0.865
	SurfOH            3.611e-03       0.026   3.611e-03      -2.442
	SurfH2AsO4        3.454e-05       0.000   3.454e-05      -4.462
	SurfHAsO4-        2.828e-05       0.000   2.828e-05      -4.549
	SurfO-            2.192e-06       0.000   2.192e-06      -5.659
	SurfOHAsO4-3      6.956e-07       0.000   6.956e-07      -6.158

------------------
End of simulation.
------------------

------------------------------------
Reading input data for simulation 6.
------------------------------------

	SELECTED_OUTPUT
	        file ex4.dummy.sel
	        reset false
	        ph
	USER_PUNCH
	heading        Ca      Mg      Na      Cl      C(4)    SO4     As
	10 PUNCH TOT("Ca")*1e3*40.08
	20 PUNCH TOT("Mg")*1e3*24.312
	30 PUNCH TOT("Na")*1e3*23.
	40 PUNCH TOT("Cl")*1e3*35.45
	50 PUNCH TOT("C(4)")*1e3*61.   # as HCO3-
	60 PUNCH TOT("S(6)")*1e3*96.   # as SO4
	70 PUNCH TOT("As")*1e6*74.296  # ug/L
	END
------------------
End of simulation.
------------------

------------------------------------
Reading input data for simulation 7.
------------------------------------

List of Components:
	1	H
	2	O
	3	As
	4	C
	5	Ca
	6	Cl
	7	Mg
	8	Na
	9	S
	10	Charge
List of master species:
	1	As
	2	C(-4)
	3	C(4)
	4	Ca
	5	Cl
	6	Mg
	7	Na
	8	S(-2)
	9	S(6)
Time 10000. Cell 1: x=              0	y=              0	z=              0
Using solution 1.
Using exchange 1
Using surface 1.
Using pure phase assemblage 1.

-------------------------------Phase assemblage--------------------------------

                                                      Moles in assemblage
Phase                  SI log IAP  log KT      Initial       Final       Delta

Calcite              0.00   -8.48   -8.48    1.004e-01   1.007e-01   3.164e-04
Dolomite             0.00  -17.09  -17.09    1.600e+00   1.600e+00  -1.538e-04

------------------------------Surface composition------------------------------

Surf          
	  1.363e-01  Surface charge, eq
Surf          
	  1.400e-01  moles
	                                   Mole                     Log
	Species               Moles    Fraction    Molality    Molality

	SurfOH2+          1.363e-01       0.974   1.363e-01      -0.865
	SurfOH            3.595e-03       0.026   3.595e-03      -2.444
	SurfH2AsO4        3.462e-05       0.000   3.462e-05      -4.461
	SurfHAsO4-        2.821e-05       0.000   2.821e-05      -4.550
	SurfO-            2.171e-06       0.000   2.171e-06      -5.663
	SurfOHAsO4-3      6.912e-07       0.000   6.912e-07      -6.160

-----------------------------Exchange composition------------------------------

X                5.000e-01 mol

	                               Equiv-    Equivalent      Log 
	Species             Moles      alents      Fraction     Gamma

	NaX               4.499e-01   4.499e-01   8.999e-01     0.232
	CaX2              2.049e-02   4.099e-02   8.198e-02     0.163
	MgX2              4.533e-03   9.067e-03   1.813e-02     0.488

-----------------------------Solution composition------------------------------

	Elements           Molality       Moles

	As                1.063e-08   1.063e-08
	C                 4.055e-03   4.055e-03
	Ca                4.531e-01   4.531e-01
	Cl                6.499e+00   6.499e+00
	Mg                1.588e-01   1.588e-01
	Na                5.288e+00   5.288e+00
	S                 4.628e-03   4.628e-03

----------------------------Description of solution----------------------------

                                       pH  =   5.711      Charge balance
                                       pe  =  14.959      Adjusted to redox equilibrium
                        Activity of water  =   0.789
                           Ionic strength  =   7.109e+00
                       Mass of water (kg)  =   1.000e+00
                 Total alkalinity (eq/kg)  =   3.827e-03
                       Total CO2 (mol/kg)  =   4.055e-03
                      Temperature (deg C)  =  25.000
                  Electrical balance (eq)  =   3.500e-05
 Percent error, 100*(Cat-|An|)/(Cat+|An|)  =   0.00
                               Iterations  =   4
                                  Total H  = 1.110163e+02
                                  Total O  = 5.553677e+01

----------------------------Distribution of species----------------------------

                                                   Log       Log         Log 
   Species                 Molality    Activity  Molality  Activity     Gamma

   H+                     2.766e-06   1.945e-06    -5.558    -5.711    -0.153
   OH-                    8.767e-09   4.061e-09    -8.057    -8.391    -0.334
   H2O                    5.551e+01   7.892e-01     1.744    -0.103     0.000
As               1.063e-08
   H2AsO4-                1.062e-08   5.519e-08    -7.974    -7.258     0.716
   HAsO4-2                4.262e-12   3.111e-09   -11.370    -8.507     2.863
   H3AsO4                 3.630e-12   1.866e-11   -11.440   -10.729     0.711
   AsO4-3                 1.826e-21   5.057e-15   -20.738   -14.296     6.442
C(-4)            0.000e+00
   CH4                    0.000e+00   0.000e+00  -144.408  -143.697     0.711
C(4)             4.055e-03
   CaHCO3+                3.026e-03   1.753e-03    -2.519    -2.756    -0.237
   HCO3-                  3.635e-04   2.106e-04    -3.439    -3.677    -0.237
   MgHCO3+                2.291e-04   1.191e-03    -3.640    -2.924     0.716
   CO2                    2.271e-04   1.167e-03    -3.644    -2.933     0.711
   NaHCO3                 2.076e-04   1.067e-03    -3.683    -2.972     0.711
   CaCO3                  1.083e-06   5.565e-06    -5.965    -5.255     0.711
   MgCO3                  4.556e-07   2.341e-06    -6.341    -5.631     0.711
   NaCO3-                 1.639e-07   8.518e-07    -6.785    -6.070     0.716
   CO3-2                  4.509e-08   5.077e-09    -7.346    -8.294    -0.948
Ca               4.531e-01
   Ca+2                   4.485e-01   6.525e-01    -0.348    -0.185     0.163
   CaHCO3+                3.026e-03   1.753e-03    -2.519    -2.756    -0.237
   CaSO4                  1.547e-03   7.952e-03    -2.810    -2.100     0.711
   CaCO3                  1.083e-06   5.565e-06    -5.965    -5.255     0.711
   CaHSO4+                1.744e-08   9.063e-08    -7.759    -7.043     0.716
   CaOH+                  8.452e-09   4.393e-08    -8.073    -7.357     0.716
Cl               6.499e+00
   Cl-                    6.499e+00   3.849e+00     0.813     0.585    -0.228
H(0)             0.000e+00
   H2                     0.000e+00   0.000e+00   -45.201   -44.490     0.711
Mg               1.588e-01
   Mg+2                   1.572e-01   4.833e-01    -0.803    -0.316     0.488
   MgSO4                  1.347e-03   6.921e-03    -2.871    -2.160     0.711
   MgHCO3+                2.291e-04   1.191e-03    -3.640    -2.924     0.716
   MgCO3                  4.556e-07   2.341e-06    -6.341    -5.631     0.711
   MgOH+                  1.370e-07   7.119e-07    -6.863    -6.148     0.716
Na               5.288e+00
   Na+                    5.287e+00   9.010e+00     0.723     0.955     0.232
   NaSO4-                 5.307e-04   2.759e-03    -3.275    -2.559     0.716
   NaHCO3                 2.076e-04   1.067e-03    -3.683    -2.972     0.711
   NaCO3-                 1.639e-07   8.518e-07    -6.785    -6.070     0.716
   NaOH                   4.699e-09   2.415e-08    -8.328    -7.617     0.711
O(0)             9.653e-05
   O2                     4.826e-05   2.480e-04    -4.316    -3.605     0.711
S(-2)            0.000e+00
   H2S                    0.000e+00   0.000e+00  -140.704  -139.993     0.711
   HS-                    0.000e+00   0.000e+00  -140.890  -141.224    -0.334
   S-2                    0.000e+00   0.000e+00  -147.421  -148.431    -1.010
S(6)             4.628e-03
   CaSO4                  1.547e-03   7.952e-03    -2.810    -2.100     0.711
   MgSO4                  1.347e-03   6.921e-03    -2.871    -2.160     0.711
   SO4-2                  1.204e-03   6.109e-05    -2.919    -4.214    -1.295
   NaSO4-                 5.307e-04   2.759e-03    -3.275    -2.559     0.716
   CaHSO4+                1.744e-08   9.063e-08    -7.759    -7.043     0.716
   HSO4-                  2.223e-09   1.155e-08    -8.653    -7.937     0.716

------------------------------Saturation indices-------------------------------

	Phase               SI log IAP  log KT

	Anhydrite        -0.04   -4.40   -4.36  CaSO4
	Aragonite        -0.14   -8.48   -8.34  CaCO3
	Calcite           0.00   -8.48   -8.48  CaCO3
	CH4(g)         -140.84 -143.70   -2.86  CH4
	CO2(g)           -1.46   -2.93   -1.47  CO2
	Dolomite          0.00  -17.09  -17.09  CaMg(CO3)2
	Gypsum           -0.02   -4.61   -4.58  CaSO4:2H2O
	H2(g)           -41.34  -44.49   -3.15  H2
	H2O(g)           -1.61   -0.10    1.51  H2O
	H2S(g)         -139.00 -139.99   -1.00  H2S
	Halite           -0.04    1.54    1.58  NaCl
	O2(g)            -0.65   -3.61   -2.96  O2
	Sulfur         -103.54  -98.65    4.88  S

Time 10000. Cell 3: x=          12000	y=              0	z=              0
Using solution 3.
Using exchange 3
Using surface 3.
Using pure phase assemblage 3.

-------------------------------Phase assemblage--------------------------------

                                                      Moles in assemblage
Phase                  SI log IAP  log KT      Initial       Final       Delta

Calcite              0.00   -8.48   -8.48    1.131e-01   1.180e-01   4.880e-03
Dolomite            -0.00  -17.09  -17.09    1.593e+00   1.591e+00  -2.456e-03

------------------------------Surface composition------------------------------

Surf          
	  1.363e-01  Surface charge, eq
Surf          
	  1.400e-01  moles
	                                   Mole                     Log
	Species               Moles    Fraction    Molality    Molality

	SurfOH2+          1.363e-01       0.974   1.363e-01      -0.865
	SurfOH            3.599e-03       0.026   3.599e-03      -2.444
	SurfH2AsO4        3.457e-05       0.000   3.457e-05      -4.461
	SurfHAsO4-        2.820e-05       0.000   2.820e-05      -4.550
	SurfO-            2.177e-06       0.000   2.177e-06      -5.662
	SurfOHAsO4-3      7.429e-07       0.000   7.429e-07      -6.129

-----------------------------Exchange composition------------------------------

X                5.000e-01 mol

	                               Equiv-    Equivalent      Log 
	Species             Moles      alents      Fraction     Gamma

	NaX               4.381e-01   4.381e-01   8.762e-01     0.097
	CaX2              2.454e-02   4.909e-02   9.818e-02    -0.126
	MgX2              6.416e-03   1.283e-02   2.566e-02     0.126

-----------------------------Solution composition------------------------------

	Elements           Molality       Moles

	As                2.174e-08   2.174e-08
	C                 5.887e-03   5.887e-03
	Ca                3.080e-01   3.080e-01
	Cl                4.731e+00   4.731e+00
	Mg                1.272e-01   1.272e-01
	Na                3.874e+00   3.874e+00
	S                 3.434e-03   3.434e-03

----------------------------Description of solution----------------------------

                                       pH  =   5.712      Charge balance
                                       pe  =  15.076      Adjusted to redox equilibrium
                        Activity of water  =   0.846
                           Ionic strength  =   5.167e+00
                       Mass of water (kg)  =   1.000e+00
                 Total alkalinity (eq/kg)  =   4.939e-03
                       Total CO2 (mol/kg)  =   5.887e-03
                      Temperature (deg C)  =  25.000
                  Electrical balance (eq)  =   1.516e-03
 Percent error, 100*(Cat-|An|)/(Cat+|An|)  =   0.02
                               Iterations  =   5
                                  Total H  = 1.110177e+02
                                  Total O  = 5.553734e+01

----------------------------Distribution of species----------------------------

                                                   Log       Log         Log 
   Species                 Molality    Activity  Molality  Activity     Gamma

   H+                     2.744e-06   1.943e-06    -5.562    -5.712    -0.150
   OH-                    9.121e-09   4.361e-09    -8.040    -8.360    -0.321
   H2O                    5.551e+01   8.463e-01     1.744    -0.073     0.000
As               2.174e-08
   H2AsO4-                2.167e-08   5.910e-08    -7.664    -7.228     0.436
   HAsO4-2                6.028e-11   3.336e-09   -10.220    -8.477     1.743
   H3AsO4                 6.072e-12   1.995e-11   -11.217   -10.700     0.517
   AsO4-3                 6.500e-19   5.429e-15   -18.187   -14.265     3.922
C(-4)            0.000e+00
   CH4                    0.000e+00   0.000e+00  -144.787  -144.270     0.517
C(4)             5.887e-03
   CaHCO3+                2.974e-03   1.751e-03    -2.527    -2.757    -0.230
   HCO3-                  1.025e-03   6.035e-04    -2.989    -3.219    -0.230
   CO2                    9.479e-04   3.115e-03    -3.023    -2.507     0.517
   NaHCO3                 5.001e-04   1.643e-03    -3.301    -2.784     0.517
   MgHCO3+                4.361e-04   1.189e-03    -3.360    -2.925     0.436
   CaCO3                  1.693e-06   5.565e-06    -5.771    -5.255     0.517
   MgCO3                  7.125e-07   2.341e-06    -6.147    -5.631     0.517
   NaCO3-                 4.816e-07   1.314e-06    -6.317    -5.882     0.436
   CO3-2                  1.214e-07   1.457e-08    -6.916    -7.837    -0.921
Ca               3.080e-01
   Ca+2                   3.041e-01   2.274e-01    -0.517    -0.643    -0.126
   CaHCO3+                2.974e-03   1.751e-03    -2.527    -2.757    -0.230
   CaSO4                  9.472e-04   3.113e-03    -3.024    -2.507     0.517
   CaCO3                  1.693e-06   5.565e-06    -5.771    -5.255     0.517
   CaHSO4+                1.299e-08   3.543e-08    -7.886    -7.451     0.436
   CaOH+                  6.027e-09   1.644e-08    -8.220    -7.784     0.436
Cl               4.731e+00
   Cl-                    4.731e+00   2.704e+00     0.675     0.432    -0.243
H(0)             0.000e+00
   H2                     0.000e+00   0.000e+00   -45.241   -44.725     0.517
Mg               1.272e-01
   Mg+2                   1.260e-01   1.684e-01    -0.900    -0.774     0.126
   MgSO4                  8.244e-04   2.709e-03    -3.084    -2.567     0.517
   MgHCO3+                4.361e-04   1.189e-03    -3.360    -2.925     0.436
   MgCO3                  7.125e-07   2.341e-06    -6.147    -5.631     0.517
   MgOH+                  9.767e-08   2.664e-07    -7.010    -6.574     0.436
Na               3.874e+00
   Na+                    3.873e+00   4.843e+00     0.588     0.685     0.097
   NaSO4-                 6.105e-04   1.665e-03    -3.214    -2.779     0.436
   NaHCO3                 5.001e-04   1.643e-03    -3.301    -2.784     0.517
   NaCO3-                 4.816e-07   1.314e-06    -6.317    -5.882     0.436
   NaOH                   4.241e-09   1.394e-08    -8.373    -7.856     0.517
O(0)             5.113e-04
   O2                     2.557e-04   8.402e-04    -3.592    -3.076     0.517
S(-2)            0.000e+00
   H2S                    0.000e+00   0.000e+00  -141.521  -141.004     0.517
   HS-                    0.000e+00   0.000e+00  -141.913  -142.234    -0.321
   S-2                    0.000e+00   0.000e+00  -148.462  -149.440    -0.979
S(6)             3.434e-03
   SO4-2                  1.051e-03   6.861e-05    -2.978    -4.164    -1.185
   CaSO4                  9.472e-04   3.113e-03    -3.024    -2.507     0.517
   MgSO4                  8.244e-04   2.709e-03    -3.084    -2.567     0.517
   NaSO4-                 6.105e-04   1.665e-03    -3.214    -2.779     0.436
   CaHSO4+                1.299e-08   3.543e-08    -7.886    -7.451     0.436
   HSO4-                  4.751e-09   1.296e-08    -8.323    -7.887     0.436

------------------------------Saturation indices-------------------------------

	Phase               SI log IAP  log KT

	Anhydrite        -0.45   -4.81   -4.36  CaSO4
	Aragonite        -0.14   -8.48   -8.34  CaCO3
	Calcite           0.00   -8.48   -8.48  CaCO3
	CH4(g)         -141.41 -144.27   -2.86  CH4
	CO2(g)           -1.04   -2.51   -1.47  CO2
	Dolomite         -0.00  -17.09  -17.09  CaMg(CO3)2
	Gypsum           -0.37   -4.95   -4.58  CaSO4:2H2O
	H2(g)           -41.57  -44.72   -3.15  H2
	H2O(g)           -1.58   -0.07    1.51  H2O
	H2S(g)         -140.01 -141.00   -1.00  H2S
	Halite           -0.46    1.12    1.58  NaCl
	O2(g)            -0.12   -3.08   -2.96  O2
	Sulfur         -104.31  -99.43    4.88  S

Time 10000. Cell 5: x=          24000	y=              0	z=              0
Using solution 5.
Using exchange 5
Using surface 5.
Using pure phase assemblage 5.

-------------------------------Phase assemblage--------------------------------

                                                      Moles in assemblage
Phase                  SI log IAP  log KT      Initial       Final       Delta

Calcite              0.00   -8.48   -8.48    1.499e-01   1.523e-01   2.400e-03
Dolomite             0.00  -17.09  -17.09    1.574e+00   1.571e+00  -2.402e-03

------------------------------Surface composition------------------------------

Surf          
	  1.324e-01  Surface charge, eq
Surf          
	  1.400e-01  moles
	                                   Mole                     Log
	Species               Moles    Fraction    Molality    Molality

	SurfOH2+          1.324e-01       0.946   1.324e-01      -0.878
	SurfOH            7.479e-03       0.053   7.479e-03      -2.126
	SurfHAsO4-        3.714e-05       0.000   3.714e-05      -4.430
	SurfH2AsO4        2.128e-05       0.000   2.128e-05      -4.672
	SurfO-            9.675e-06       0.000   9.675e-06      -5.014
	SurfOHAsO4-3      5.038e-06       0.000   5.038e-06      -5.298

-----------------------------Exchange composition------------------------------

X                5.000e-01 mol

	                               Equiv-    Equivalent      Log 
	Species             Moles      alents      Fraction     Gamma

	NaX               3.823e-01   3.823e-01   7.645e-01    -0.124
	CaX2              4.313e-02   8.627e-02   1.725e-01    -0.576
	MgX2              1.574e-02   3.147e-02   6.295e-02    -0.469

-----------------------------Solution composition------------------------------

	Elements           Molality       Moles

	As                5.419e-08   5.419e-08
	C                 1.356e-02   1.357e-02
	Ca                7.277e-02   7.277e-02
	Cl                1.443e+00   1.443e+00
	Mg                4.200e-02   4.200e-02
	Na                1.236e+00   1.236e+00
	S                 1.211e-03   1.211e-03

----------------------------Description of solution----------------------------

                                       pH  =   6.042      Charge balance
                                       pe  =  14.847      Adjusted to redox equilibrium
                        Activity of water  =   0.952
                           Ionic strength  =   1.569e+00
                       Mass of water (kg)  =   1.000e+00
                 Total alkalinity (eq/kg)  =   8.508e-03
                       Total CO2 (mol/kg)  =   1.356e-02
                      Temperature (deg C)  =  25.000
                  Electrical balance (eq)  =   1.131e-02
 Percent error, 100*(Cat-|An|)/(Cat+|An|)  =   0.39
                               Iterations  =   5
                                  Total H  = 1.110225e+02
                                  Total O  = 5.555122e+01

----------------------------Distribution of species----------------------------

                                                   Log       Log         Log 
   Species                 Molality    Activity  Molality  Activity     Gamma

   H+                     1.241e-06   9.082e-07    -5.906    -6.042    -0.136
   OH-                    1.917e-08   1.050e-08    -7.717    -7.979    -0.262
   H2O                    5.551e+01   9.523e-01     1.744    -0.021     0.000
As               5.419e-08
   H2AsO4-                4.659e-08   4.215e-08    -7.332    -7.375    -0.043
   HAsO4-2                7.596e-09   5.088e-09    -8.119    -8.293    -0.174
   H3AsO4                 4.635e-12   6.652e-12   -11.334   -11.177     0.157
   AsO4-3                 4.364e-14   1.772e-14   -13.360   -13.752    -0.391
C(-4)            0.000e+00
   CH4                    0.000e+00   0.000e+00  -144.971  -144.814     0.157
C(4)             1.356e-02
   HCO3-                  5.349e-03   3.390e-03    -2.272    -2.470    -0.198
   CO2                    5.066e-03   7.270e-03    -2.295    -2.138     0.157
   CaHCO3+                1.291e-03   8.185e-04    -2.889    -3.087    -0.198
   NaHCO3                 1.234e-03   1.771e-03    -2.909    -2.752     0.157
   MgHCO3+                6.146e-04   5.560e-04    -3.211    -3.255    -0.043
   CaCO3                  3.878e-06   5.565e-06    -5.411    -5.255     0.157
   NaCO3-                 3.347e-06   3.028e-06    -5.475    -5.519    -0.043
   MgCO3                  1.632e-06   2.341e-06    -5.787    -5.631     0.157
   CO3-2                  1.085e-06   1.751e-07    -5.965    -6.757    -0.792
Ca               7.277e-02
   Ca+2                   7.130e-02   1.892e-02    -1.147    -1.723    -0.576
   CaHCO3+                1.291e-03   8.185e-04    -2.889    -3.087    -0.198
   CaSO4                  1.773e-04   2.544e-04    -3.751    -3.594     0.157
   CaCO3                  3.878e-06   5.565e-06    -5.411    -5.255     0.157
   CaOH+                  3.640e-09   3.293e-09    -8.439    -8.482    -0.043
   CaHSO4+                1.496e-09   1.354e-09    -8.825    -8.868    -0.043
Cl               1.443e+00
   Cl-                    1.443e+00   8.344e-01     0.159    -0.079    -0.238
H(0)             0.000e+00
   H2                     0.000e+00   0.000e+00   -45.084   -44.927     0.157
Mg               4.200e-02
   Mg+2                   4.123e-02   1.402e-02    -1.385    -1.853    -0.469
   MgHCO3+                6.146e-04   5.560e-04    -3.211    -3.255    -0.043
   MgSO4                  1.543e-04   2.214e-04    -3.812    -3.655     0.157
   MgCO3                  1.632e-06   2.341e-06    -5.787    -5.631     0.157
   MgOH+                  5.898e-08   5.336e-08    -7.229    -7.273    -0.043
Na               1.236e+00
   Na+                    1.234e+00   9.289e-01     0.091    -0.032    -0.124
   NaHCO3                 1.234e-03   1.771e-03    -2.909    -2.752     0.157
   NaSO4-                 3.468e-04   3.137e-04    -3.460    -3.503    -0.043
   NaCO3-                 3.347e-06   3.028e-06    -5.475    -5.519    -0.043
   NaOH                   4.484e-09   6.435e-09    -8.348    -8.191     0.157
O(0)             3.765e-03
   O2                     1.883e-03   2.702e-03    -2.725    -2.568     0.157
S(-2)            0.000e+00
   H2S                    0.000e+00   0.000e+00  -142.844  -142.687     0.157
   HS-                    0.000e+00   0.000e+00  -143.325  -143.587    -0.262
   S-2                    0.000e+00   0.000e+00  -149.628  -150.463    -0.835
S(6)             1.211e-03
   SO4-2                  5.324e-04   6.738e-05    -3.274    -4.171    -0.898
   NaSO4-                 3.468e-04   3.137e-04    -3.460    -3.503    -0.043
   CaSO4                  1.773e-04   2.544e-04    -3.751    -3.594     0.157
   MgSO4                  1.543e-04   2.214e-04    -3.812    -3.655     0.157
   HSO4-                  6.577e-09   5.950e-09    -8.182    -8.225    -0.043
   CaHSO4+                1.496e-09   1.354e-09    -8.825    -8.868    -0.043

------------------------------Saturation indices-------------------------------

	Phase               SI log IAP  log KT

	Anhydrite        -1.53   -5.89   -4.36  CaSO4
	Aragonite        -0.14   -8.48   -8.34  CaCO3
	Calcite           0.00   -8.48   -8.48  CaCO3
	CH4(g)         -141.95 -144.81   -2.86  CH4
	CO2(g)           -0.67   -2.14   -1.47  CO2
	Dolomite          0.00  -17.09  -17.09  CaMg(CO3)2
	Gypsum           -1.36   -5.94   -4.58  CaSO4:2H2O
	H2(g)           -41.78  -44.93   -3.15  H2
	H2O(g)           -1.53   -0.02    1.51  H2O
	H2S(g)         -141.69 -142.69   -1.00  H2S
	Halite           -1.69   -0.11    1.58  NaCl
	O2(g)             0.39   -2.57   -2.96  O2
	Sulfur         -105.79 -100.91    4.88  S

Time 10000. Cell 7: x=          36000	y=              0	z=              0
Using solution 7.
Using exchange 7
Using surface 7.
Using pure phase assemblage 7.

-------------------------------Phase assemblage--------------------------------

                                                      Moles in assemblage
Phase                  SI log IAP  log KT      Initial       Final       Delta

Calcite              0.00   -8.48   -8.48    1.490e-01   1.459e-01  -3.123e-03
Dolomite             0.00  -17.09  -17.09    1.568e+00   1.564e+00  -3.721e-03

------------------------------Surface composition------------------------------

Surf          
	  1.218e-01  Surface charge, eq
Surf          
	  1.400e-01  moles
	                                   Mole                     Log
	Species               Moles    Fraction    Molality    Molality

	SurfOH2+          1.220e-01       0.872   1.220e-01      -0.914
	SurfOH            1.786e-02       0.128   1.786e-02      -1.748
	SurfO-            5.989e-05       0.000   5.989e-05      -4.223
	SurfHAsO4-        2.924e-05       0.000   2.924e-05      -4.534
	SurfOHAsO4-3      2.772e-05       0.000   2.772e-05      -4.557
	SurfH2AsO4        6.464e-06       0.000   6.464e-06      -5.189

-----------------------------Exchange composition------------------------------

X                5.000e-01 mol

	                               Equiv-    Equivalent      Log 
	Species             Moles      alents      Fraction     Gamma

	NaX               3.110e-01   3.110e-01   6.220e-01    -0.139
	CaX2              6.609e-02   1.322e-01   2.643e-01    -0.535
	MgX2              2.840e-02   5.681e-02   1.136e-01    -0.499

-----------------------------Solution composition------------------------------

	Elements           Molality       Moles

	As                3.522e-08   3.522e-08
	C                 2.555e-02   2.555e-02
	Ca                8.089e-03   8.089e-03
	Cl                2.498e-01   2.498e-01
	Mg                5.509e-03   5.509e-03
	Na                2.665e-01   2.665e-01
	S                 4.039e-04   4.039e-04

----------------------------Description of solution----------------------------

                                       pH  =   6.455      Charge balance
                                       pe  =  14.490      Adjusted to redox equilibrium
                        Activity of water  =   0.991
                           Ionic strength  =   2.918e-01
                       Mass of water (kg)  =   1.000e+00
                 Total alkalinity (eq/kg)  =   1.729e-02
                       Total CO2 (mol/kg)  =   2.555e-02
                      Temperature (deg C)  =  25.000
                  Electrical balance (eq)  =   2.578e-02
 Percent error, 100*(Cat-|An|)/(Cat+|An|)  =   4.62
                               Iterations  =   5
                                  Total H  = 1.110265e+02
                                  Total O  = 5.558384e+01

----------------------------Distribution of species----------------------------

                                                   Log       Log         Log 
   Species                 Molality    Activity  Molality  Activity     Gamma

   H+                     4.472e-07   3.504e-07    -6.349    -6.455    -0.106
   OH-                    4.184e-08   2.830e-08    -7.378    -7.548    -0.170
   H2O                    5.551e+01   9.905e-01     1.744    -0.004     0.000
As               3.522e-08
   H2AsO4-                1.968e-08   1.445e-08    -7.706    -7.840    -0.134
   HAsO4-2                1.554e-08   4.523e-09    -7.808    -8.345    -0.536
   H3AsO4                 8.228e-13   8.800e-13   -12.085   -12.056     0.029
   AsO4-3                 6.565e-13   4.082e-14   -12.183   -13.389    -1.206
C(-4)            0.000e+00
   CH4                    0.000e+00   0.000e+00  -145.249  -145.220     0.029
C(4)             2.555e-02
   HCO3-                  1.539e-02   1.114e-02    -1.813    -1.953    -0.141
   CO2                    8.281e-03   8.857e-03    -2.082    -2.053     0.029
   NaHCO3                 1.128e-03   1.206e-03    -2.948    -2.919     0.029
   CaHCO3+                4.364e-04   3.158e-04    -3.360    -3.501    -0.141
   MgHCO3+                2.921e-04   2.145e-04    -3.535    -3.669    -0.134
   NaCO3-                 7.278e-06   5.346e-06    -5.138    -5.272    -0.134
   CO3-2                  5.439e-06   1.491e-06    -5.265    -5.827    -0.562
   CaCO3                  5.203e-06   5.565e-06    -5.284    -5.255     0.029
   MgCO3                  2.189e-06   2.341e-06    -5.660    -5.631     0.029
Ca               8.089e-03
   Ca+2                   7.620e-03   2.222e-03    -2.118    -2.653    -0.535
   CaHCO3+                4.364e-04   3.158e-04    -3.360    -3.501    -0.141
   CaSO4                  2.779e-05   2.972e-05    -4.556    -4.527     0.029
   CaCO3                  5.203e-06   5.565e-06    -5.284    -5.255     0.029
   CaOH+                  1.420e-09   1.043e-09    -8.848    -8.982    -0.134
   CaHSO4+                8.308e-11   6.101e-11   -10.081   -10.215    -0.134
Cl               2.498e-01
   Cl-                    2.498e-01   1.707e-01    -0.602    -0.768    -0.165
H(0)             0.000e+00
   H2                     0.000e+00   0.000e+00   -45.071   -45.042     0.029
Mg               5.509e-03
   Mg+2                   5.190e-03   1.646e-03    -2.285    -2.784    -0.499
   MgHCO3+                2.921e-04   2.145e-04    -3.535    -3.669    -0.134
   MgSO4                  2.419e-05   2.587e-05    -4.616    -4.587     0.029
   MgCO3                  2.189e-06   2.341e-06    -5.660    -5.631     0.029
   MgOH+                  2.301e-08   1.690e-08    -7.638    -7.772    -0.134
Na               2.665e-01
   Na+                    2.653e-01   1.926e-01    -0.576    -0.715    -0.139
   NaHCO3                 1.128e-03   1.206e-03    -2.948    -2.919     0.029
   NaSO4-                 8.810e-05   6.471e-05    -4.055    -4.189    -0.134
   NaCO3-                 7.278e-06   5.346e-06    -5.138    -5.272    -0.134
   NaOH                   3.363e-09   3.597e-09    -8.473    -8.444     0.029
O(0)             9.261e-03
   O2                     4.630e-03   4.952e-03    -2.334    -2.305     0.029
S(-2)            0.000e+00
   H2S                    0.000e+00   0.000e+00  -144.072  -144.043     0.029
   HS-                    0.000e+00   0.000e+00  -144.359  -144.529    -0.170
   S-2                    0.000e+00   0.000e+00  -150.408  -150.991    -0.583
S(6)             4.039e-04
   SO4-2                  2.638e-04   6.704e-05    -3.579    -4.174    -0.595
   NaSO4-                 8.810e-05   6.471e-05    -4.055    -4.189    -0.134
   CaSO4                  2.779e-05   2.972e-05    -4.556    -4.527     0.029
   MgSO4                  2.419e-05   2.587e-05    -4.616    -4.587     0.029
   HSO4-                  3.109e-09   2.284e-09    -8.507    -8.641    -0.134
   CaHSO4+                8.308e-11   6.101e-11   -10.081   -10.215    -0.134

------------------------------Saturation indices-------------------------------

	Phase               SI log IAP  log KT

	Anhydrite        -2.47   -6.83   -4.36  CaSO4
	Aragonite        -0.14   -8.48   -8.34  CaCO3
	Calcite           0.00   -8.48   -8.48  CaCO3
	CH4(g)         -142.36 -145.22   -2.86  CH4
	CO2(g)           -0.58   -2.05   -1.47  CO2
	Dolomite          0.00  -17.09  -17.09  CaMg(CO3)2
	Gypsum           -2.25   -6.84   -4.58  CaSO4:2H2O
	H2(g)           -41.89  -45.04   -3.15  H2
	H2O(g)           -1.51   -0.00    1.51  H2O
	H2S(g)         -143.05 -144.04   -1.00  H2S
	Halite           -3.07   -1.48    1.58  NaCl
	O2(g)             0.65   -2.31   -2.96  O2
	Sulfur         -107.03 -102.15    4.88  S

Time 10000. Cell 9: x=          48000	y=              0	z=              0
Using solution 9.
Using exchange 9
Using surface 9.
Using pure phase assemblage 9.

-------------------------------Phase assemblage--------------------------------

                                                      Moles in assemblage
Phase                  SI log IAP  log KT      Initial       Final       Delta

Calcite              0.00   -8.48   -8.48    1.422e-01   1.372e-01  -5.006e-03
Dolomite             0.00  -17.09  -17.09    1.567e+00   1.562e+00  -5.233e-03

------------------------------Surface composition------------------------------

Surf          
	  1.160e-01  Surface charge, eq
Surf          
	  1.400e-01  moles
	                                   Mole                     Log
	Species               Moles    Fraction    Molality    Molality

	SurfOH2+          1.163e-01       0.831   1.163e-01      -0.934
	SurfOH            2.355e-02       0.168   2.355e-02      -1.628
	SurfO-            1.092e-04       0.001   1.092e-04      -3.962
	SurfOHAsO4-3      3.876e-05       0.000   3.876e-05      -4.412
	SurfHAsO4-        2.126e-05       0.000   2.126e-05      -4.672
	SurfH2AsO4        3.398e-06       0.000   3.398e-06      -5.469

-----------------------------Exchange composition------------------------------

X                5.000e-01 mol

	                               Equiv-    Equivalent      Log 
	Species             Moles      alents      Fraction     Gamma

	NaX               2.787e-01   2.787e-01   5.574e-01    -0.118
	CaX2              7.664e-02   1.533e-01   3.066e-01    -0.451
	MgX2              3.401e-02   6.803e-02   1.361e-01    -0.429

-----------------------------Solution composition------------------------------

	Elements           Molality       Moles

	As                2.077e-08   2.076e-08
	C                 3.136e-02   3.135e-02
	Ca                3.462e-03   3.461e-03
	Cl                9.936e-02   9.935e-02
	Mg                2.430e-03   2.430e-03
	Na                1.428e-01   1.428e-01
	S                 3.022e-04   3.021e-04

----------------------------Description of solution----------------------------

                                       pH  =   6.596      Charge balance
                                       pe  =  14.375      Adjusted to redox equilibrium
                        Activity of water  =   0.995
                           Ionic strength  =   1.425e-01
                       Mass of water (kg)  =   9.999e-01
                 Total alkalinity (eq/kg)  =   2.247e-02
                       Total CO2 (mol/kg)  =   3.136e-02
                      Temperature (deg C)  =  25.000
                  Electrical balance (eq)  =   3.212e-02
 Percent error, 100*(Cat-|An|)/(Cat+|An|)  =  11.73
                               Iterations  =   5
                                  Total H  = 1.110268e+02
                                  Total O  = 5.560084e+01

----------------------------Distribution of species----------------------------

                                                   Log       Log         Log 
   Species                 Molality    Activity  Molality  Activity     Gamma

   H+                     3.122e-07   2.533e-07    -6.506    -6.596    -0.091
   OH-                    5.357e-08   3.934e-08    -7.271    -7.405    -0.134
   H2O                    5.551e+01   9.952e-01     1.744    -0.002     0.000
As               2.077e-08
   H2AsO4-                1.050e-08   8.009e-09    -7.979    -8.096    -0.118
   HAsO4-2                1.026e-08   3.467e-09    -7.989    -8.460    -0.471
   AsO4-3                 4.973e-13   4.329e-14   -12.303   -13.364    -1.060
   H3AsO4                 3.411e-13   3.525e-13   -12.467   -12.453     0.014
C(-4)            0.000e+00
   CH4                    0.000e+00   0.000e+00  -145.431  -145.417     0.014
C(4)             3.136e-02
   HCO3-                  2.098e-02   1.609e-02    -1.678    -1.793    -0.115
   CO2                    8.909e-03   9.206e-03    -2.050    -2.036     0.014
   NaHCO3                 9.462e-04   9.778e-04    -3.024    -3.010     0.014
   CaHCO3+                2.976e-04   2.282e-04    -3.526    -3.642    -0.115
   MgHCO3+                2.034e-04   1.550e-04    -3.692    -3.810    -0.118
   CO3-2                  8.606e-06   2.979e-06    -5.065    -5.526    -0.461
   NaCO3-                 7.864e-06   5.996e-06    -5.104    -5.222    -0.118
   CaCO3                  5.385e-06   5.565e-06    -5.269    -5.255     0.014
   MgCO3                  2.266e-06   2.341e-06    -5.645    -5.631     0.014
Ca               3.462e-03
   Ca+2                   3.143e-03   1.112e-03    -2.503    -2.954    -0.451
   CaHCO3+                2.976e-04   2.282e-04    -3.526    -3.642    -0.115
   CaSO4                  1.569e-05   1.621e-05    -4.804    -4.790     0.014
   CaCO3                  5.385e-06   5.565e-06    -5.269    -5.255     0.014
   CaOH+                  9.510e-10   7.251e-10    -9.022    -9.140    -0.118
   CaHSO4+                3.154e-11   2.405e-11   -10.501   -10.619    -0.118
Cl               9.936e-02
   Cl-                    9.936e-02   7.333e-02    -1.003    -1.135    -0.132
H(0)             0.000e+00
   H2                     0.000e+00   0.000e+00   -45.108   -45.094     0.014
Mg               2.430e-03
   Mg+2                   2.211e-03   8.236e-04    -2.655    -3.084    -0.429
   MgHCO3+                2.034e-04   1.550e-04    -3.692    -3.810    -0.118
   MgSO4                  1.365e-05   1.411e-05    -4.865    -4.851     0.014
   MgCO3                  2.266e-06   2.341e-06    -5.645    -5.631     0.014
   MgOH+                  1.541e-08   1.175e-08    -7.812    -7.930    -0.118
Na               1.428e-01
   Na+                    1.418e-01   1.081e-01    -0.848    -0.966    -0.118
   NaHCO3                 9.462e-04   9.778e-04    -3.024    -3.010     0.014
   NaSO4-                 5.191e-05   3.958e-05    -4.285    -4.403    -0.118
   NaCO3-                 7.864e-06   5.996e-06    -5.104    -5.222    -0.118
   NaOH                   2.715e-09   2.806e-09    -8.566    -8.552     0.014
O(0)             1.231e-02
   O2                     6.155e-03   6.360e-03    -2.211    -2.197     0.014
S(-2)            0.000e+00
   H2S                    0.000e+00   0.000e+00  -144.519  -144.504     0.014
   HS-                    0.000e+00   0.000e+00  -144.716  -144.850    -0.134
   S-2                    0.000e+00   0.000e+00  -150.696  -151.171    -0.475
S(6)             3.022e-04
   SO4-2                  2.209e-04   7.307e-05    -3.656    -4.136    -0.481
   NaSO4-                 5.191e-05   3.958e-05    -4.285    -4.403    -0.118
   CaSO4                  1.569e-05   1.621e-05    -4.804    -4.790     0.014
   MgSO4                  1.365e-05   1.411e-05    -4.865    -4.851     0.014
   HSO4-                  2.360e-09   1.799e-09    -8.627    -8.745    -0.118
   CaHSO4+                3.154e-11   2.405e-11   -10.501   -10.619    -0.118

------------------------------Saturation indices-------------------------------

	Phase               SI log IAP  log KT

	Anhydrite        -2.73   -7.09   -4.36  CaSO4
	Aragonite        -0.14   -8.48   -8.34  CaCO3
	Calcite           0.00   -8.48   -8.48  CaCO3
	CH4(g)         -142.56 -145.42   -2.86  CH4
	CO2(g)           -0.57   -2.04   -1.47  CO2
	Dolomite          0.00  -17.09  -17.09  CaMg(CO3)2
	Gypsum           -2.51   -7.09   -4.58  CaSO4:2H2O
	H2(g)           -41.94  -45.09   -3.15  H2
	H2O(g)           -1.51   -0.00    1.51  H2O
	H2S(g)         -143.51 -144.50   -1.00  H2S
	Halite           -3.68   -2.10    1.58  NaCl
	O2(g)             0.76   -2.20   -2.96  O2
	Sulfur         -107.44 -102.56    4.88  S

Time 10000. Cell 33: x=              0	y=          12000	z=              0
Using solution 33.
Using exchange 33
Using surface 33.
Using pure phase assemblage 33.

-------------------------------Phase assemblage--------------------------------

                                                      Moles in assemblage
Phase                  SI log IAP  log KT      Initial       Final       Delta

Calcite              0.00   -8.48   -8.48    1.008e-01   1.013e-01   5.477e-04
Dolomite             0.00  -17.09  -17.09    1.600e+00   1.599e+00  -2.668e-04

------------------------------Surface composition------------------------------

Surf          
	  1.363e-01  Surface charge, eq
Surf          
	  1.400e-01  moles
	                                   Mole                     Log
	Species               Moles    Fraction    Molality    Molality

	SurfOH2+          1.364e-01       0.974   1.364e-01      -0.865
	SurfOH            3.583e-03       0.026   3.583e-03      -2.446
	SurfH2AsO4        3.467e-05       0.000   3.467e-05      -4.460
	SurfHAsO4-        2.816e-05       0.000   2.816e-05      -4.550
	SurfO-            2.157e-06       0.000   2.157e-06      -5.666
	SurfOHAsO4-3      6.873e-07       0.000   6.873e-07      -6.163

-----------------------------Exchange composition------------------------------

X                5.000e-01 mol

	                               Equiv-    Equivalent      Log 
	Species             Moles      alents      Fraction     Gamma

	NaX               4.496e-01   4.496e-01   8.992e-01     0.226
	CaX2              2.062e-02   4.123e-02   8.246e-02     0.152
	MgX2              4.589e-03   9.177e-03   1.835e-02     0.474

-----------------------------Solution composition------------------------------

	Elements           Molality       Moles

	As                1.093e-08   1.093e-08
	C                 4.107e-03   4.107e-03
	Ca                4.475e-01   4.475e-01
	Cl                6.433e+00   6.433e+00
	Mg                1.578e-01   1.578e-01
	Na                5.235e+00   5.235e+00
	S                 4.584e-03   4.584e-03

----------------------------Description of solution----------------------------

                                       pH  =   5.710      Charge balance
                                       pe  =  14.967      Adjusted to redox equilibrium
                        Activity of water  =   0.791
                           Ionic strength  =   7.036e+00
                       Mass of water (kg)  =   1.000e+00
                 Total alkalinity (eq/kg)  =   3.865e-03
                       Total CO2 (mol/kg)  =   4.107e-03
                      Temperature (deg C)  =  25.000
                  Electrical balance (eq)  =   6.009e-05
 Percent error, 100*(Cat-|An|)/(Cat+|An|)  =   0.00
                               Iterations  =   4
                                  Total H  = 1.110163e+02
                                  Total O  = 5.553674e+01

----------------------------Distribution of species----------------------------

                                                   Log       Log         Log 
   Species                 Molality    Activity  Molality  Activity     Gamma

   H+                     2.775e-06   1.952e-06    -5.557    -5.710    -0.153
   OH-                    8.753e-09   4.059e-09    -8.058    -8.392    -0.334
   H2O                    5.551e+01   7.913e-01     1.744    -0.102     0.000
As               1.093e-08
   H2AsO4-                1.093e-08   5.542e-08    -7.962    -7.256     0.705
   HAsO4-2                4.703e-12   3.114e-09   -11.328    -8.507     2.821
   H3AsO4                 3.719e-12   1.880e-11   -11.430   -10.726     0.704
   AsO4-3                 2.269e-21   5.045e-15   -20.644   -14.297     6.347
C(-4)            0.000e+00
   CH4                    0.000e+00   0.000e+00  -144.441  -143.737     0.704
C(4)             4.107e-03
   CaHCO3+                3.035e-03   1.759e-03    -2.518    -2.755    -0.237
   HCO3-                  3.787e-04   2.195e-04    -3.422    -3.659    -0.237
   CO2                    2.408e-04   1.217e-03    -3.618    -2.915     0.704
   MgHCO3+                2.355e-04   1.195e-03    -3.628    -2.923     0.705
   NaHCO3                 2.153e-04   1.088e-03    -3.667    -2.963     0.704
   CaCO3                  1.101e-06   5.565e-06    -5.958    -5.255     0.704
   MgCO3                  4.633e-07   2.341e-06    -6.334    -5.631     0.704
   NaCO3-                 1.707e-07   8.658e-07    -6.768    -6.063     0.705
   CO3-2                  4.674e-08   5.274e-09    -7.330    -8.278    -0.948
Ca               4.475e-01
   Ca+2                   4.429e-01   6.281e-01    -0.354    -0.202     0.152
   CaHCO3+                3.035e-03   1.759e-03    -2.518    -2.755    -0.237
   CaSO4                  1.523e-03   7.699e-03    -2.817    -2.114     0.704
   CaCO3                  1.101e-06   5.565e-06    -5.958    -5.255     0.704
   CaHSO4+                1.735e-08   8.802e-08    -7.761    -7.055     0.705
   CaOH+                  8.333e-09   4.227e-08    -8.079    -7.374     0.705
Cl               6.433e+00
   Cl-                    6.433e+00   3.804e+00     0.808     0.580    -0.228
H(0)             0.000e+00
   H2                     0.000e+00   0.000e+00   -45.208   -44.504     0.704
Mg               1.578e-01
   Mg+2                   1.562e-01   4.653e-01    -0.806    -0.332     0.474
   MgSO4                  1.326e-03   6.700e-03    -2.878    -2.174     0.704
   MgHCO3+                2.355e-04   1.195e-03    -3.628    -2.923     0.705
   MgCO3                  4.633e-07   2.341e-06    -6.334    -5.631     0.704
   MgOH+                  1.350e-07   6.850e-07    -6.870    -6.164     0.705
Na               5.235e+00
   Na+                    5.234e+00   8.816e+00     0.719     0.945     0.226
   NaSO4-                 5.351e-04   2.714e-03    -3.272    -2.566     0.705
   NaHCO3                 2.153e-04   1.088e-03    -3.667    -2.963     0.704
   NaCO3-                 1.707e-07   8.658e-07    -6.768    -6.063     0.705
   NaOH                   4.673e-09   2.362e-08    -8.330    -7.627     0.704
O(0)             1.052e-04
   O2                     5.260e-05   2.659e-04    -4.279    -3.575     0.704
S(-2)            0.000e+00
   H2S                    0.000e+00   0.000e+00  -140.752  -140.048     0.704
   HS-                    0.000e+00   0.000e+00  -140.947  -141.281    -0.334
   S-2                    0.000e+00   0.000e+00  -147.480  -148.489    -1.009
S(6)             4.584e-03
   CaSO4                  1.523e-03   7.699e-03    -2.817    -2.114     0.704
   MgSO4                  1.326e-03   6.700e-03    -2.878    -2.174     0.704
   SO4-2                  1.200e-03   6.143e-05    -2.921    -4.212    -1.291
   NaSO4-                 5.351e-04   2.714e-03    -3.272    -2.566     0.705
   CaHSO4+                1.735e-08   8.802e-08    -7.761    -7.055     0.705
   HSO4-                  2.298e-09   1.166e-08    -8.639    -7.933     0.705

------------------------------Saturation indices-------------------------------

	Phase               SI log IAP  log KT

	Anhydrite        -0.05   -4.41   -4.36  CaSO4
	Aragonite        -0.14   -8.48   -8.34  CaCO3
	Calcite           0.00   -8.48   -8.48  CaCO3
	CH4(g)         -140.88 -143.74   -2.86  CH4
	CO2(g)           -1.45   -2.91   -1.47  CO2
	Dolomite          0.00  -17.09  -17.09  CaMg(CO3)2
	Gypsum           -0.04   -4.62   -4.58  CaSO4:2H2O
	H2(g)           -41.35  -44.50   -3.15  H2
	H2O(g)           -1.61   -0.10    1.51  H2O
	H2S(g)         -139.05 -140.05   -1.00  H2S
	Halite           -0.06    1.53    1.58  NaCl
	O2(g)            -0.62   -3.58   -2.96  O2
	Sulfur         -103.58  -98.69    4.88  S

Time 10000. Cell 35: x=          12000	y=          12000	z=              0
Using solution 35.
Using exchange 35
Using surface 35.
Using pure phase assemblage 35.

-------------------------------Phase assemblage--------------------------------

                                                      Moles in assemblage
Phase                  SI log IAP  log KT      Initial       Final       Delta

Calcite              0.00   -8.48   -8.48    1.196e-01   1.259e-01   6.268e-03
Dolomite             0.00  -17.09  -17.09    1.590e+00   1.587e+00  -3.176e-03

------------------------------Surface composition------------------------------

Surf          
	  1.362e-01  Surface charge, eq
Surf          
	  1.400e-01  moles
	                                   Mole                     Log
	Species               Moles    Fraction    Molality    Molality

	SurfOH2+          1.362e-01       0.973   1.362e-01      -0.866
	SurfOH            3.697e-03       0.026   3.697e-03      -2.432
	SurfH2AsO4        3.410e-05       0.000   3.410e-05      -4.467
	SurfHAsO4-        2.860e-05       0.000   2.860e-05      -4.544
	SurfO-            2.299e-06       0.000   2.299e-06      -5.638
	SurfOHAsO4-3      8.085e-07       0.000   8.084e-07      -6.092

-----------------------------Exchange composition------------------------------

X                5.000e-01 mol

	                               Equiv-    Equivalent      Log 
	Species             Moles      alents      Fraction     Gamma

	NaX               4.344e-01   4.344e-01   8.688e-01     0.068
	CaX2              2.579e-02   5.159e-02   1.032e-01    -0.189
	MgX2              7.004e-03   1.401e-02   2.802e-02     0.047

-----------------------------Solution composition------------------------------

	Elements           Molality       Moles

	As                2.515e-08   2.515e-08
	C                 6.493e-03   6.493e-03
	Ca                2.773e-01   2.773e-01
	Cl                4.334e+00   4.334e+00
	Mg                1.189e-01   1.189e-01
	Na                3.555e+00   3.555e+00
	S                 3.165e-03   3.165e-03

----------------------------Description of solution----------------------------

                                       pH  =   5.724      Charge balance
                                       pe  =  15.085      Adjusted to redox equilibrium
                        Activity of water  =   0.859
                           Ionic strength  =   4.731e+00
                       Mass of water (kg)  =   1.000e+00
                 Total alkalinity (eq/kg)  =   5.240e-03
                       Total CO2 (mol/kg)  =   6.493e-03
                      Temperature (deg C)  =  25.000
                  Electrical balance (eq)  =   2.188e-03
 Percent error, 100*(Cat-|An|)/(Cat+|An|)  =   0.03
                               Iterations  =   5
                                  Total H  = 1.110182e+02
                                  Total O  = 5.553805e+01

----------------------------Distribution of species----------------------------

                                                   Log       Log         Log 
   Species                 Molality    Activity  Molality  Activity     Gamma

   H+                     2.664e-06   1.890e-06    -5.574    -5.724    -0.149
[...]
   CO3-2                  8.146e-06   2.904e-06    -5.089    -5.537    -0.448
   NaCO3-                 6.906e-06   5.299e-06    -5.161    -5.276    -0.115
   CaCO3                  5.401e-06   5.565e-06    -5.268    -5.255     0.013
   MgCO3                  2.273e-06   2.341e-06    -5.643    -5.631     0.013
Ca               3.448e-03
   Ca+2                   3.140e-03   1.141e-03    -2.503    -2.943    -0.440
   CaHCO3+                2.863e-04   2.213e-04    -3.543    -3.655    -0.112
   CaSO4                  1.640e-05   1.689e-05    -4.785    -4.772     0.013
   CaCO3                  5.401e-06   5.565e-06    -5.268    -5.255     0.013
   CaOH+                  1.001e-09   7.677e-10    -9.000    -9.115    -0.115
   CaHSO4+                3.167e-11   2.430e-11   -10.499   -10.614    -0.115
Cl               8.945e-02
   Cl-                    8.945e-02   6.664e-02    -1.048    -1.176    -0.128
H(0)             0.000e+00
   H2                     0.000e+00   0.000e+00   -45.096   -45.083     0.013
Mg               2.428e-03
   Mg+2                   2.216e-03   8.449e-04    -2.654    -3.073    -0.419
   MgHCO3+                1.959e-04   1.503e-04    -3.708    -3.823    -0.115
   MgSO4                  1.427e-05   1.470e-05    -4.846    -4.833     0.013
   MgCO3                  2.273e-06   2.341e-06    -5.643    -5.631     0.013
   MgOH+                  1.621e-08   1.244e-08    -7.790    -7.905    -0.115
Na               1.285e-01
   Na+                    1.276e-01   9.799e-02    -0.894    -1.009    -0.115
   NaHCO3                 8.131e-04   8.377e-04    -3.090    -3.077     0.013
   NaSO4-                 4.752e-05   3.646e-05    -4.323    -4.438    -0.115
   NaCO3-                 6.906e-06   5.299e-06    -5.161    -5.276    -0.115
   NaOH                   2.548e-09   2.625e-09    -8.594    -8.581     0.013
O(0)             1.175e-02
   O2                     5.873e-03   6.052e-03    -2.231    -2.218     0.013
S(-2)            0.000e+00
   H2S                    0.000e+00   0.000e+00  -144.494  -144.481     0.013
   HS-                    0.000e+00   0.000e+00  -144.683  -144.813    -0.130
   S-2                    0.000e+00   0.000e+00  -150.660  -151.121    -0.461
S(6)             2.955e-04
   SO4-2                  2.173e-04   7.424e-05    -3.663    -4.129    -0.466
   NaSO4-                 4.752e-05   3.646e-05    -4.323    -4.438    -0.115
   CaSO4                  1.640e-05   1.689e-05    -4.785    -4.772     0.013
   MgSO4                  1.427e-05   1.470e-05    -4.846    -4.833     0.013
   HSO4-                  2.309e-09   1.772e-09    -8.636    -8.752    -0.115
   CaHSO4+                3.167e-11   2.430e-11   -10.499   -10.614    -0.115

------------------------------Saturation indices-------------------------------

	Phase               SI log IAP  log KT

	Anhydrite        -2.71   -7.07   -4.36  CaSO4
	Aragonite        -0.14   -8.48   -8.34  CaCO3
	Calcite           0.00   -8.48   -8.48  CaCO3
	CH4(g)         -142.55 -145.41   -2.86  CH4
	CO2(g)           -0.61   -2.07   -1.47  CO2
	Dolomite          0.00  -17.09  -17.09  CaMg(CO3)2
	Gypsum           -2.50   -7.08   -4.58  CaSO4:2H2O
	H2(g)           -41.93  -45.08   -3.15  H2
	H2O(g)           -1.51   -0.00    1.51  H2O
	H2S(g)         -143.48 -144.48   -1.00  H2S
	Halite           -3.77   -2.19    1.58  NaCl
	O2(g)             0.74   -2.22   -2.96  O2
	Sulfur         -107.43 -102.55    4.88  S

Time 10000. Cell 681: x=          48000	y=          36000	z=            400
Using solution 681.
Using exchange 681
Using surface 681.
Using pure phase assemblage 681.

-------------------------------Phase assemblage--------------------------------

                                                      Moles in assemblage
Phase                  SI log IAP  log KT      Initial       Final       Delta

Calcite              0.00   -8.48   -8.48    1.314e-01   1.253e-01  -6.116e-03
Dolomite             0.00  -17.09  -17.09    1.567e+00   1.561e+00  -6.017e-03

------------------------------Surface composition------------------------------

Surf          
	  1.129e-01  Surface charge, eq
Surf          
	  1.400e-01  moles
	                                   Mole                     Log
	Species               Moles    Fraction    Molality    Molality

	SurfOH2+          1.132e-01       0.809   1.132e-01      -0.946
	SurfOH            2.658e-02       0.190   2.658e-02      -1.575
	SurfO-            1.429e-04       0.001   1.429e-04      -3.845
	SurfOHAsO4-3      4.332e-05       0.000   4.332e-05      -4.363
	SurfHAsO4-        1.766e-05       0.000   1.766e-05      -4.753
	SurfH2AsO4        2.434e-06       0.000   2.435e-06      -5.614

-----------------------------Exchange composition------------------------------

X                5.000e-01 mol

	                               Equiv-    Equivalent      Log 
	Species             Moles      alents      Fraction     Gamma

	NaX               2.459e-01   2.459e-01   4.918e-01    -0.104
	CaX2              8.764e-02   1.753e-01   3.506e-01    -0.400
	MgX2              3.941e-02   7.881e-02   1.576e-01    -0.384

-----------------------------Solution composition------------------------------

	Elements           Molality       Moles

	As                1.533e-08   1.533e-08
	C                 3.169e-02   3.169e-02
	Ca                2.487e-03   2.487e-03
	Cl                5.182e-02   5.181e-02
	Mg                1.766e-03   1.766e-03
	Na                9.909e-02   9.908e-02
	S                 2.700e-04   2.700e-04

----------------------------Description of solution----------------------------

                                       pH  =   6.661      Charge balance
                                       pe  =  14.319      Adjusted to redox equilibrium
                        Activity of water  =   0.997
                           Ionic strength  =   9.437e-02
                       Mass of water (kg)  =   9.999e-01
                 Total alkalinity (eq/kg)  =   2.329e-02
                       Total CO2 (mol/kg)  =   3.169e-02
                      Temperature (deg C)  =  25.000
                  Electrical balance (eq)  =   3.195e-02
 Percent error, 100*(Cat-|An|)/(Cat+|An|)  =  17.68
                               Iterations  =   6
                                  Total H  = 1.110244e+02
                                  Total O  = 5.560173e+01

----------------------------Distribution of species----------------------------

                                                   Log       Log         Log 
   Species                 Molality    Activity  Molality  Activity     Gamma

   H+                     2.639e-07   2.185e-07    -6.579    -6.661    -0.082
   OH-                    5.960e-08   4.567e-08    -7.225    -7.340    -0.116
   H2O                    5.551e+01   9.967e-01     1.744    -0.001     0.000
As               1.533e-08
   HAsO4-2                7.811e-09   2.962e-09    -8.107    -8.528    -0.421
   H2AsO4-                7.522e-09   5.903e-09    -8.124    -8.229    -0.105
   AsO4-3                 3.798e-13   4.287e-14   -12.420   -13.368    -0.947
   H3AsO4                 2.193e-13   2.241e-13   -12.659   -12.650     0.009
C(-4)            0.000e+00
   CH4                    0.000e+00   0.000e+00  -145.519  -145.510     0.009
C(4)             3.169e-02
   HCO3-                  2.208e-02   1.748e-02    -1.656    -1.757    -0.101
   CO2                    8.432e-03   8.617e-03    -2.074    -2.065     0.009
   NaHCO3                 7.436e-04   7.600e-04    -3.129    -3.119     0.009
   CaHCO3+                2.486e-04   1.969e-04    -3.604    -3.706    -0.101
   MgHCO3+                1.705e-04   1.338e-04    -3.768    -3.874    -0.105
   CO3-2                  9.539e-06   3.753e-06    -5.020    -5.426    -0.405
   NaCO3-                 6.883e-06   5.401e-06    -5.162    -5.267    -0.105
   CaCO3                  5.445e-06   5.565e-06    -5.264    -5.255     0.009
   MgCO3                  2.291e-06   2.341e-06    -5.640    -5.631     0.009
Ca               2.487e-03
   Ca+2                   2.220e-03   8.827e-04    -2.654    -3.054    -0.400
   CaHCO3+                2.486e-04   1.969e-04    -3.604    -3.706    -0.101
   CaSO4                  1.351e-05   1.381e-05    -4.869    -4.860     0.009
   CaCO3                  5.445e-06   5.565e-06    -5.264    -5.255     0.009
   CaOH+                  8.516e-10   6.683e-10    -9.070    -9.175    -0.105
   CaHSO4+                2.252e-11   1.767e-11   -10.647   -10.753    -0.105
Cl               5.182e-02
   Cl-                    5.182e-02   3.984e-02    -1.286    -1.400    -0.114
H(0)             0.000e+00
   H2                     0.000e+00   0.000e+00   -45.119   -45.110     0.009
Mg               1.766e-03
   Mg+2                   1.582e-03   6.539e-04    -2.801    -3.185    -0.384
   MgHCO3+                1.705e-04   1.338e-04    -3.768    -3.874    -0.105
   MgSO4                  1.176e-05   1.201e-05    -4.930    -4.920     0.009
   MgCO3                  2.291e-06   2.341e-06    -5.640    -5.631     0.009
   MgOH+                  1.380e-08   1.083e-08    -7.860    -7.965    -0.105
Na               9.909e-02
   Na+                    9.830e-02   7.730e-02    -1.007    -1.112    -0.104
   NaHCO3                 7.436e-04   7.600e-04    -3.129    -3.119     0.009
   NaSO4-                 3.869e-05   3.037e-05    -4.412    -4.518    -0.105
   NaCO3-                 6.883e-06   5.401e-06    -5.162    -5.267    -0.105
   NaOH                   2.280e-09   2.330e-09    -8.642    -8.633     0.009
O(0)             1.342e-02
   O2                     6.711e-03   6.858e-03    -2.173    -2.164     0.009
S(-2)            0.000e+00
   H2S                    0.000e+00   0.000e+00  -144.677  -144.668     0.009
   HS-                    0.000e+00   0.000e+00  -144.833  -144.949    -0.116
   S-2                    0.000e+00   0.000e+00  -150.790  -151.206    -0.416
S(6)             2.700e-04
   SO4-2                  2.061e-04   7.838e-05    -3.686    -4.106    -0.420
   NaSO4-                 3.869e-05   3.037e-05    -4.412    -4.518    -0.105
   CaSO4                  1.351e-05   1.381e-05    -4.869    -4.860     0.009
   MgSO4                  1.176e-05   1.201e-05    -4.930    -4.920     0.009
   HSO4-                  2.122e-09   1.665e-09    -8.673    -8.779    -0.105
   CaHSO4+                2.252e-11   1.767e-11   -10.647   -10.753    -0.105

------------------------------Saturation indices-------------------------------

	Phase               SI log IAP  log KT

	Anhydrite        -2.80   -7.16   -4.36  CaSO4
	Aragonite        -0.14   -8.48   -8.34  CaCO3
	Calcite           0.00   -8.48   -8.48  CaCO3
	CH4(g)         -142.65 -145.51   -2.86  CH4
	CO2(g)           -0.60   -2.06   -1.47  CO2
	Dolomite          0.00  -17.09  -17.09  CaMg(CO3)2
	Gypsum           -2.58   -7.16   -4.58  CaSO4:2H2O
	H2(g)           -41.96  -45.11   -3.15  H2
	H2O(g)           -1.51   -0.00    1.51  H2O
	H2S(g)         -143.67 -144.67   -1.00  H2S
	Halite           -4.09   -2.51    1.58  NaCl
	O2(g)             0.80   -2.16   -2.96  O2
	Sulfur         -107.59 -102.71    4.88  S

Time 10000. Cell 682: x=          54000	y=          36000	z=            400
Using solution 682.
Using exchange 682
Using surface 682.
Using pure phase assemblage 682.

-------------------------------Phase assemblage--------------------------------

                                                      Moles in assemblage
Phase                  SI log IAP  log KT      Initial       Final       Delta

Calcite              0.00   -8.48   -8.48    1.266e-01   1.200e-01  -6.584e-03
Dolomite             0.00  -17.09  -17.09    1.567e+00   1.561e+00  -6.275e-03

------------------------------Surface composition------------------------------

Surf          
	  1.117e-01  Surface charge, eq
Surf          
	  1.400e-01  moles
	                                   Mole                     Log
	Species               Moles    Fraction    Molality    Molality

	SurfOH2+          1.120e-01       0.800   1.121e-01      -0.951
	SurfOH            2.774e-02       0.198   2.774e-02      -1.557
	SurfO-            1.573e-04       0.001   1.573e-04      -3.803
	SurfOHAsO4-3      4.484e-05       0.000   4.485e-05      -4.348
	SurfHAsO4-        1.643e-05       0.000   1.643e-05      -4.784
	SurfH2AsO4        2.147e-06       0.000   2.147e-06      -5.668

-----------------------------Exchange composition------------------------------

X                5.000e-01 mol

	                               Equiv-    Equivalent      Log 
	Species             Moles      alents      Fraction     Gamma

	NaX               2.348e-01   2.348e-01   4.696e-01    -0.098
	CaX2              9.134e-02   1.827e-01   3.653e-01    -0.378
	MgX2              4.127e-02   8.254e-02   1.651e-01    -0.363

-----------------------------Solution composition------------------------------

	Elements           Molality       Moles

	As                1.358e-08   1.357e-08
	C                 3.277e-02   3.277e-02
	Ca                2.130e-03   2.130e-03
	Cl                3.473e-02   3.472e-02
	Mg                1.519e-03   1.518e-03
	Na                8.533e-02   8.532e-02
	S                 2.585e-04   2.585e-04

----------------------------Description of solution----------------------------

                                       pH  =   6.684      Charge balance
                                       pe  =  14.305      Adjusted to redox equilibrium
                        Activity of water  =   0.997
                           Ionic strength  =   7.832e-02
                       Mass of water (kg)  =   9.999e-01
                 Total alkalinity (eq/kg)  =   2.427e-02
                       Total CO2 (mol/kg)  =   3.277e-02
                      Temperature (deg C)  =  25.000
                  Electrical balance (eq)  =   3.311e-02
 Percent error, 100*(Cat-|An|)/(Cat+|An|)  =  22.11
                               Iterations  =   6
                                  Total H  = 1.110232e+02
                                  Total O  = 5.560491e+01

----------------------------Distribution of species----------------------------

                                                   Log       Log         Log 
   Species                 Molality    Activity  Molality  Activity     Gamma

   H+                     2.479e-07   2.072e-07    -6.606    -6.684    -0.078
   OH-                    6.177e-08   4.819e-08    -7.209    -7.317    -0.108
   H2O                    5.551e+01   9.972e-01     1.744    -0.001     0.000
As               1.358e-08
   HAsO4-2                6.959e-09   2.786e-09    -8.157    -8.555    -0.398
   H2AsO4-                6.617e-09   5.263e-09    -8.179    -8.279    -0.099
   AsO4-3                 3.336e-13   4.252e-14   -12.477   -13.371    -0.895
   H3AsO4                 1.861e-13   1.895e-13   -12.730   -12.722     0.008
C(-4)            0.000e+00
   CH4                    0.000e+00   0.000e+00  -145.584  -145.576     0.008
C(4)             3.277e-02
   HCO3-                  2.314e-02   1.858e-02    -1.636    -1.731    -0.095
   CO2                    8.524e-03   8.679e-03    -2.069    -2.062     0.008
   NaHCO3                 6.922e-04   7.048e-04    -3.160    -3.152     0.008
   CaHCO3+                2.325e-04   1.867e-04    -3.634    -3.729    -0.095
   MgHCO3+                1.594e-04   1.268e-04    -3.797    -3.897    -0.099
   CO3-2                  1.011e-05   4.206e-06    -4.995    -5.376    -0.381
   NaCO3-                 6.642e-06   5.283e-06    -5.178    -5.277    -0.099
   CaCO3                  5.465e-06   5.565e-06    -5.262    -5.255     0.008
   MgCO3                  2.300e-06   2.341e-06    -5.638    -5.631     0.008
Ca               2.130e-03
   Ca+2                   1.879e-03   7.875e-04    -2.726    -3.104    -0.378
   CaHCO3+                2.325e-04   1.867e-04    -3.634    -3.729    -0.095
   CaSO4                  1.251e-05   1.273e-05    -4.903    -4.895     0.008
   CaCO3                  5.465e-06   5.565e-06    -5.262    -5.255     0.008
   CaOH+                  7.909e-10   6.291e-10    -9.102    -9.201    -0.099
   CaHSO4+                1.943e-11   1.545e-11   -10.712   -10.811    -0.099
Cl               3.473e-02
   Cl-                    3.473e-02   2.716e-02    -1.459    -1.566    -0.107
H(0)             0.000e+00
   H2                     0.000e+00   0.000e+00   -45.135   -45.127     0.008
Mg               1.519e-03
   Mg+2                   1.346e-03   5.834e-04    -2.871    -3.234    -0.363
   MgHCO3+                1.594e-04   1.268e-04    -3.797    -3.897    -0.099
   MgSO4                  1.088e-05   1.108e-05    -4.963    -4.955     0.008
   MgCO3                  2.300e-06   2.341e-06    -5.638    -5.631     0.008
   MgOH+                  1.282e-08   1.020e-08    -7.892    -7.992    -0.099
Na               8.533e-02
   Na+                    8.460e-02   6.745e-02    -1.073    -1.171    -0.098
   NaHCO3                 6.922e-04   7.048e-04    -3.160    -3.152     0.008
   NaSO4-                 3.444e-05   2.739e-05    -4.463    -4.562    -0.099
   NaCO3-                 6.642e-06   5.283e-06    -5.178    -5.277    -0.099
   NaOH                   2.107e-09   2.145e-09    -8.676    -8.669     0.008
O(0)             1.461e-02
   O2                     7.304e-03   7.437e-03    -2.136    -2.129     0.008
S(-2)            0.000e+00
   H2S                    0.000e+00   0.000e+00  -144.778  -144.770     0.008
   HS-                    0.000e+00   0.000e+00  -144.920  -145.028    -0.108
   S-2                    0.000e+00   0.000e+00  -150.871  -151.262    -0.391
S(6)             2.585e-04
   SO4-2                  2.007e-04   8.103e-05    -3.698    -4.091    -0.394
   NaSO4-                 3.444e-05   2.739e-05    -4.463    -4.562    -0.099
   CaSO4                  1.251e-05   1.273e-05    -4.903    -4.895     0.008
   MgSO4                  1.088e-05   1.108e-05    -4.963    -4.955     0.008
   HSO4-                  2.052e-09   1.632e-09    -8.688    -8.787    -0.099
   CaHSO4+                1.943e-11   1.545e-11   -10.712   -10.811    -0.099

------------------------------Saturation indices-------------------------------

	Phase               SI log IAP  log KT

	Anhydrite        -2.83   -7.20   -4.36  CaSO4
	Aragonite        -0.14   -8.48   -8.34  CaCO3
	Calcite           0.00   -8.48   -8.48  CaCO3
	CH4(g)         -142.72 -145.58   -2.86  CH4
	CO2(g)           -0.59   -2.06   -1.47  CO2
	Dolomite          0.00  -17.09  -17.09  CaMg(CO3)2
	Gypsum           -2.62   -7.20   -4.58  CaSO4:2H2O
	H2(g)           -41.98  -45.13   -3.15  H2
	H2O(g)           -1.51   -0.00    1.51  H2O
	H2S(g)         -143.77 -144.77   -1.00  H2S
	Halite           -4.32   -2.74    1.58  NaCl
	O2(g)             0.83   -2.13   -2.96  O2
	Sulfur         -107.67 -102.79    4.88  S

Time 10000. Cell 684: x=          66000	y=          36000	z=            400
Cell is dry.
Time 10000. Cell 686: x=          78000	y=          36000	z=            400
Cell is dry.
Time 10000. Cell 688: x=          90000	y=          36000	z=            400
Cell is dry.
Time 10000. Cell 705: x=              0	y=          48000	z=            400
Cell is dry.
Time 10000. Cell 707: x=          12000	y=          48000	z=            400
Cell is dry.
Time 10000. Cell 709: x=          24000	y=          48000	z=            400
Cell is dry.
Time 10000. Cell 711: x=          36000	y=          48000	z=            400
Cell is dry.
Time 10000. Cell 713: x=          48000	y=          48000	z=            400
Cell is dry.
Time 10000. Cell 714: x=          54000	y=          48000	z=            400
Cell is dry.
Time 10000. Cell 716: x=          66000	y=          48000	z=            400
Cell is dry.
Time 10000. Cell 718: x=          78000	y=          48000	z=            400
Cell is dry.
Time 10000. Cell 720: x=          90000	y=          48000	z=            400
Cell is dry.
