Output file:    free.chem.txt
Chemistry file: free.chem.dat
Database file:  phast.dat

------------------
Reading data base.
------------------

	SOLUTION_MASTER_SPECIES
	SOLUTION_SPECIES
	PHASES
	EXCHANGE_MASTER_SPECIES
	EXCHANGE_SPECIES
	SURFACE_MASTER_SPECIES
	SURFACE_SPECIES
	RATES
	END
------------------------------------
Reading input data for simulation 1.
------------------------------------

	SOLUTION_MASTER_SPECIES
	        A       A       0       A       1
	SOLUTION_SPECIES
	        A = A
	        log_k   0
	SURFACE_MASTER_SPECIES
	        Surf    Surf
	SURFACE_SPECIES
	        Surf = Surf
	                log_k 0
	        Surf + A = SurfA 
	                log_k   -10
	SOLUTION 1
		 Na	1
		 Cl	1
	END
-------------------------------------------
Beginning of initial solution calculations.
-------------------------------------------

Initial solution 1.	

-----------------------------Solution composition------------------------------

	Elements           Molality       Moles

	Cl                1.000e-03   1.000e-03
	Na                1.000e-03   1.000e-03

----------------------------Description of solution----------------------------

                                       pH  =   7.000    
                                       pe  =   4.000    
                        Activity of water  =   1.000
                           Ionic strength  =   1.000e-03
                       Mass of water (kg)  =   1.000e+00
                 Total alkalinity (eq/kg)  =   3.658e-10
                    Total carbon (mol/kg)  =   0.000e+00
                       Total CO2 (mol/kg)  =   0.000e+00
                      Temperature (deg C)  =  25.000
                  Electrical balance (eq)  =  -3.658e-10
 Percent error, 100*(Cat-|An|)/(Cat+|An|)  =  -0.00
                               Iterations  =   3
                                  Total H  = 1.110124e+02
                                  Total O  = 5.550622e+01

----------------------------Distribution of species----------------------------

                                                   Log       Log         Log 
   Species                 Molality    Activity  Molality  Activity     Gamma

   OH-                    1.038e-07   1.001e-07    -6.984    -7.000    -0.016
   H+                     1.034e-07   1.000e-07    -6.985    -7.000    -0.015
   H2O                    5.551e+01   1.000e+00     1.744    -0.000     0.000
Cl               1.000e-03
   Cl-                    1.000e-03   9.649e-04    -3.000    -3.016    -0.016
H(0)             1.416e-25
   H2                     7.078e-26   7.079e-26   -25.150   -25.150     0.000
Na               1.000e-03
   Na+                    1.000e-03   9.652e-04    -3.000    -3.015    -0.015
   NaOH                   6.375e-11   6.377e-11   -10.196   -10.195     0.000
O(0)             0.000e+00
   O2                     0.000e+00   0.000e+00   -42.080   -42.080     0.000

------------------------------Saturation indices-------------------------------

	Phase               SI log IAP  log KT

	H2(g)           -22.00  -25.15   -3.15  H2
	H2O(g)           -1.51   -0.00    1.51  H2O
	Halite           -7.61   -6.03    1.58  NaCl
	O2(g)           -39.12  -42.08   -2.96  O2

------------------
End of simulation.
------------------

------------------------------------
Reading input data for simulation 2.
------------------------------------

	SOLUTION 2
	        A        1.0 mmol/kgw
		Na	 1
		Br	 1
	END
-------------------------------------------
Beginning of initial solution calculations.
-------------------------------------------

Initial solution 2.	

-----------------------------Solution composition------------------------------

	Elements           Molality       Moles

	A                 1.000e-03   1.000e-03
	Br                1.000e-03   1.000e-03
	Na                1.000e-03   1.000e-03

----------------------------Description of solution----------------------------

                                       pH  =   7.000    
                                       pe  =   4.000    
                        Activity of water  =   1.000
                           Ionic strength  =   1.000e-03
                       Mass of water (kg)  =   1.000e+00
                 Total alkalinity (eq/kg)  =   3.640e-10
                    Total carbon (mol/kg)  =   0.000e+00
                       Total CO2 (mol/kg)  =   0.000e+00
                      Temperature (deg C)  =  25.000
                  Electrical balance (eq)  =  -3.640e-10
 Percent error, 100*(Cat-|An|)/(Cat+|An|)  =  -0.00
                               Iterations  =   3
                                  Total H  = 1.110124e+02
                                  Total O  = 5.550622e+01

----------------------------Distribution of species----------------------------

                                                   Log       Log         Log 
   Species                 Molality    Activity  Molality  Activity     Gamma

   OH-                    1.038e-07   1.001e-07    -6.984    -7.000    -0.016
   H+                     1.034e-07   1.000e-07    -6.985    -7.000    -0.015
   H2O                    5.551e+01   9.999e-01     1.744    -0.000     0.000
A                1.000e-03
   A                      1.000e-03   1.000e-03    -3.000    -3.000     0.000
Br               1.000e-03
   Br-                    1.000e-03   9.647e-04    -3.000    -3.016    -0.016
H(0)             1.416e-25
   H2                     7.078e-26   7.079e-26   -25.150   -25.150     0.000
Na               1.000e-03
   Na+                    1.000e-03   9.652e-04    -3.000    -3.015    -0.015
   NaOH                   6.375e-11   6.377e-11   -10.196   -10.195     0.000
O(0)             0.000e+00
   O2                     0.000e+00   0.000e+00   -42.080   -42.080     0.000

------------------------------Saturation indices-------------------------------

	Phase               SI log IAP  log KT

	H2(g)           -22.00  -25.15   -3.15  H2
	H2O(g)           -1.51   -0.00    1.51  H2O
	O2(g)           -39.12  -42.08   -2.96  O2

------------------
End of simulation.
------------------

------------------------------------
Reading input data for simulation 3.
------------------------------------

	SURFACE 1
	        no_edl
	        Surf    1e10    
	END
------------------
End of simulation.
------------------

------------------------------------
Reading input data for simulation 4.
------------------------------------

	EQUILIBRIUM_PHASES 1
	        Calcite  0 1
	END
------------------
End of simulation.
------------------

------------------------------------
Reading input data for simulation 5.
------------------------------------

	SOLID_SOLUTION 1
	        CaSrBaSO4    # greater than 2 components, ideal
	                component   Anhydrite   1.
	                component   Celestite   0.1
	                component   Barite      1
	END
------------------
End of simulation.
------------------

------------------------------------
Reading input data for simulation 6.
------------------------------------

	EXCHANGE 1              
	        NaX             2.0
	END
------------------
End of simulation.
------------------

------------------------------------
Reading input data for simulation 7.
------------------------------------

	GAS_PHASE 1
	        fixed_volume
	        volume 1
	        N2(g)      0.78
	        O2(g)      .0003
	END
------------------
End of simulation.
------------------

------------------------------------
Reading input data for simulation 8.
------------------------------------

	KINETICS 1
	        K-feldspar
	                m0 2
	                m  1
	                parms 1.36e4  0.1
	                tol 1e-12
	        Pyrite  
	                tol    1e-6
	                m0     2
	                m      1
	                parms -5.0     0.1     .5      -0.11 
	END
------------------
End of simulation.
------------------

------------------------------------
Reading input data for simulation 9.
------------------------------------

	SELECTED_OUTPUT
	        file free.dummy.sel
	        reset false
	USER_PUNCH
	        headings A SurfA SurfA/A Cl Br
	10 PUNCH TOT("A")*1000
	20 PUNCH MOL("SurfA")*1000
	30 IF TOT("A") > 0 THEN PUNCH MOL("SurfA")/TOT("A") ELSE PUNCH -1
	40 PUNCH TOT("Cl")*1000
	50 PUNCH TOT("Br")*1000
	END
------------------
End of simulation.
------------------

-------------------------------------
Reading input data for simulation 10.
-------------------------------------

List of Components:
	1	H
	2	O
	3	A
	4	Al
	5	Ba
	6	Br
	7	C
	8	Ca
	9	Cl
	10	Fe
	11	K
	12	N
	13	Na
	14	S
	15	Si
	16	Sr
	17	Charge
List of master species:
	1	A
	2	Al
	3	Ba
	4	Br
	5	C(-4)
	6	C(4)
	7	Ca
	8	Cl
	9	Fe(2)
	10	Fe(3)
	11	K
	12	N(-3)
	13	N(0)
	14	N(3)
	15	N(5)
	16	Na
	17	S(-2)
	18	S(6)
	19	Si
	20	Sr
Time 0.0001. Cell 1: x=              0	y=              0	z=              0
Using solution 1.
Using exchange 1
Using surface 1.
Using pure phase assemblage 1.
Using solid solution assemblage 1.
Using gas phase 1.
Using kinetics 1.

Kinetics.

	Time:      0.0001 seconds
	Time step: 0.0001 seconds

	Rate name       Delta Moles Total Moles   Reactant        Coefficient

	K-feldspar       -1.110e-16   1.000e+00   K-feldspar                1
	Pyrite            0.000e+00   1.000e+00   Pyrite                    1

-----------------------------------Gas phase-----------------------------------


Total pressure:   0.7704   atmospheres
    Gas volume:   1.00e+00 liters

                                                        Moles in gas
                                            ----------------------------------
Component                log P           P     Initial       Final       Delta

N2(g)                    -0.11   7.704e-01   3.149e-02   3.149e-02   0.000e+00
O2(g)                   -10.66   2.196e-11   8.977e-13   8.977e-13   0.000e+00

-------------------------------Phase assemblage--------------------------------

                                                      Moles in assemblage
Phase                  SI log IAP  log KT      Initial       Final       Delta

Calcite              0.00   -8.48   -8.48    9.999e-01   9.999e-01  -1.520e-09

--------------------------------Solid solutions--------------------------------


Solid solution                Component        Moles  Delta moles   Mole fract

CaSrBaSO4                                   1.94e+00
                              Anhydrite     8.40e-01    -1.97e-06     4.33e-01
                                 Barite     1.00e+00    -9.71e-12     5.16e-01
                              Celestite     9.99e-02    -1.88e-09     5.15e-02

------------------------------Surface composition------------------------------

Surf          
	  0.000e+00  Surface charge, eq
Surf          
	  1.000e+10  moles
	                                   Mole                     Log
	Species               Moles    Fraction    Molality    Molality

	Surf              1.000e+10       1.000   1.000e+10      10.000
	SurfA             1.046e-08       0.000   1.046e-08      -7.980

-----------------------------Exchange composition------------------------------

X                2.000e+00 mol

	                               Equiv-    Equivalent      Log 
	Species             Moles      alents      Fraction     Gamma

	NaX               1.691e+00   1.691e+00   8.454e-01    -0.146
	CaX2              1.545e-01   3.089e-01   1.545e-01    -0.567
	SrX2              1.271e-04   2.543e-04   1.271e-04    -0.568
	BaX2              6.784e-07   1.357e-06   6.784e-07    -0.633
	KX                1.029e-16   1.029e-16   5.146e-17    -0.181
	AlOHX2            4.431e-25   8.862e-25   4.431e-25    -0.545
	AlX3              3.228e-29   9.685e-29   4.843e-29    -1.012
	NH4X              4.554e-49   4.554e-49   2.277e-49    -0.212

-----------------------------Solution composition------------------------------

	Elements           Molality       Moles

	A                 9.537e-09   9.537e-09
	Al                1.068e-16   1.068e-16
	Ba                3.398e-08   3.398e-08
	Br                2.000e-08   2.000e-08
	C                 1.040e-04   1.040e-04
	Ca                6.004e-03   6.004e-03
	Cl                1.000e-03   1.000e-03
	K                 3.896e-18   3.896e-18
	N                 7.817e-04   7.817e-04
	Na                3.102e-01   3.102e-01
	S                 1.605e-01   1.605e-01
	Si                3.204e-16   3.204e-16
	Sr                3.778e-06   3.778e-06

----------------------------Description of solution----------------------------

                                       pH  =   9.444      Charge balance
                                       pe  =   8.673      Adjusted to redox equilibrium
                        Activity of water  =   0.993
                           Ionic strength  =   4.023e-01
                       Mass of water (kg)  =   1.000e+00
                 Total alkalinity (eq/kg)  =   1.982e-04
                       Total CO2 (mol/kg)  =   1.040e-04
                      Temperature (deg C)  =  25.000
                  Electrical balance (eq)  =  -3.806e-10
 Percent error, 100*(Cat-|An|)/(Cat+|An|)  =  -0.00
                               Iterations  =  36
                                  Total H  = 1.110124e+02
                                  Total O  = 5.614850e+01

----------------------------Distribution of species----------------------------

                                                   Log       Log         Log 
   Species                 Molality    Activity  Molality  Activity     Gamma

   OH-                    4.246e-05   2.762e-05    -4.372    -4.559    -0.187
   H+                     4.660e-10   3.598e-10    -9.332    -9.444    -0.112
   H2O                    5.551e+01   9.925e-01     1.744    -0.003     0.000
A                9.537e-09
   A                      9.537e-09   1.046e-08    -8.021    -7.980     0.040
Al               1.068e-16
   Al(OH)4-               1.068e-16   7.805e-17   -15.971   -16.108    -0.136
   Al(OH)3                1.368e-20   1.501e-20   -19.864   -19.824     0.040
   Al(OH)2+               5.053e-23   3.693e-23   -22.296   -22.433    -0.136
   AlOH+2                 5.988e-27   1.708e-27   -26.223   -26.768    -0.545
   AlSO4+                 7.304e-30   5.338e-30   -29.136   -29.273    -0.136
   Al(SO4)2-              6.255e-30   4.571e-30   -29.204   -29.340    -0.136
   Al+3                   6.400e-31   6.232e-32   -30.194   -31.205    -1.012
   AlHSO4+2               5.970e-40   1.703e-40   -39.224   -39.769    -0.545
Ba               3.398e-08
   BaSO4                  2.522e-08   2.766e-08    -7.598    -7.558     0.040
   Ba+2                   8.755e-09   2.038e-09    -8.058    -8.691    -0.633
   BaCO3                  4.565e-12   5.008e-12   -11.341   -11.300     0.040
   BaHCO3+                9.754e-13   7.129e-13   -12.011   -12.147    -0.136
   BaOH+                  2.607e-13   1.905e-13   -12.584   -12.720    -0.136
Br               2.000e-08
   Br-                    2.000e-08   1.265e-08    -7.699    -7.898    -0.199
C(-4)            0.000e+00
   CH4                    0.000e+00   0.000e+00  -128.107  -128.066     0.040
C(4)             1.040e-04
   HCO3-                  5.179e-05   3.649e-05    -4.286    -4.438    -0.152
   NaCO3-                 2.370e-05   1.732e-05    -4.625    -4.761    -0.136
   CO3-2                  1.930e-05   4.756e-06    -4.715    -5.323    -0.608
   CaCO3                  5.073e-06   5.565e-06    -5.295    -5.255     0.040
   NaHCO3                 3.659e-06   4.014e-06    -5.437    -5.396     0.040
   CaHCO3+                4.602e-07   3.242e-07    -6.337    -6.489    -0.152
   CO2                    2.711e-08   2.974e-08    -7.567    -7.527     0.040
   SrCO3                  1.228e-09   1.347e-09    -8.911    -8.871     0.040
   SrHCO3+                3.514e-10   2.476e-10    -9.454    -9.606    -0.152
   BaCO3                  4.565e-12   5.008e-12   -11.341   -11.300     0.040
   BaHCO3+                9.754e-13   7.129e-13   -12.011   -12.147    -0.136
Ca               6.004e-03
   CaSO4                  3.431e-03   3.764e-03    -2.465    -2.424     0.040
   Ca+2                   2.568e-03   6.965e-04    -2.590    -3.157    -0.567
   CaCO3                  5.073e-06   5.565e-06    -5.295    -5.255     0.040
   CaHCO3+                4.602e-07   3.242e-07    -6.337    -6.489    -0.152
   CaOH+                  4.363e-07   3.189e-07    -6.360    -6.496    -0.136
   CaHSO4+                1.085e-11   7.932e-12   -10.964   -11.101    -0.136
Cl               1.000e-03
   Cl-                    1.000e-03   6.594e-04    -3.000    -3.181    -0.181
H(0)             7.529e-40
   H2                     3.764e-40   4.130e-40   -39.424   -39.384     0.040
K                3.896e-18
   K+                     3.325e-18   2.193e-18   -17.478   -17.659    -0.181
   KSO4-                  5.710e-19   4.173e-19   -18.243   -18.380    -0.136
   KOH                    1.912e-23   2.098e-23   -22.718   -22.678     0.040
N(-3)            0.000e+00
   NH4+                   0.000e+00   0.000e+00   -49.732   -49.945    -0.212
   NH3                    0.000e+00   0.000e+00   -49.785   -49.745     0.040
   NH4SO4-                0.000e+00   0.000e+00   -50.266   -50.402    -0.136
N(0)             7.719e-04
   N2                     3.859e-04   4.234e-04    -3.413    -3.373     0.040
N(3)             2.142e-13
   NO2-                   2.142e-13   1.355e-13   -12.669   -12.868    -0.199
N(5)             9.809e-06
   NO3-                   9.809e-06   6.206e-06    -5.008    -5.207    -0.199
Na               3.102e-01
   Na+                    2.738e-01   1.956e-01    -0.563    -0.709    -0.146
   NaSO4-                 3.633e-02   2.655e-02    -1.440    -1.576    -0.136
   NaCO3-                 2.370e-05   1.732e-05    -4.625    -4.761    -0.136
   NaHCO3                 3.659e-06   4.014e-06    -5.437    -5.396     0.040
   NaOH                   3.250e-06   3.565e-06    -5.488    -5.448     0.040
O(0)             4.390e-14
   O2                     2.195e-14   2.408e-14   -13.659   -13.618     0.040
S(-2)            0.000e+00
   HS-                    0.000e+00   0.000e+00  -122.098  -122.285    -0.187
   H2S                    0.000e+00   0.000e+00  -124.827  -124.787     0.040
   S-2                    0.000e+00   0.000e+00  -125.126  -125.759    -0.633
S(6)             1.605e-01
   SO4-2                  1.207e-01   2.708e-02    -0.918    -1.567    -0.649
   NaSO4-                 3.633e-02   2.655e-02    -1.440    -1.576    -0.136
   CaSO4                  3.431e-03   3.764e-03    -2.465    -2.424     0.040
   SrSO4                  2.135e-06   2.343e-06    -5.671    -5.630     0.040
   BaSO4                  2.522e-08   2.766e-08    -7.598    -7.558     0.040
   HSO4-                  1.296e-09   9.473e-10    -8.887    -9.024    -0.136
   CaHSO4+                1.085e-11   7.932e-12   -10.964   -11.101    -0.136
   KSO4-                  5.710e-19   4.173e-19   -18.243   -18.380    -0.136
   AlSO4+                 7.304e-30   5.338e-30   -29.136   -29.273    -0.136
   Al(SO4)2-              6.255e-30   4.571e-30   -29.204   -29.340    -0.136
   AlHSO4+2               5.970e-40   1.703e-40   -39.224   -39.769    -0.545
   NH4SO4-                0.000e+00   0.000e+00   -50.266   -50.402    -0.136
Si               3.204e-16
   H4SiO4                 1.983e-16   2.176e-16   -15.703   -15.662     0.040
   H3SiO4-                1.220e-16   8.918e-17   -15.914   -16.050    -0.136
   H2SiO4-2               5.911e-20   1.686e-20   -19.228   -19.773    -0.545
Sr               3.778e-06
   SrSO4                  2.135e-06   2.343e-06    -5.671    -5.630     0.040
   Sr+2                   1.641e-06   4.436e-07    -5.785    -6.353    -0.568
   SrCO3                  1.228e-09   1.347e-09    -8.911    -8.871     0.040
   SrHCO3+                3.514e-10   2.476e-10    -9.454    -9.606    -0.152
   SrOH+                  9.036e-11   6.276e-11   -10.044   -10.202    -0.158

------------------------------Saturation indices-------------------------------

	Phase               SI log IAP  log KT

	Al(OH)3(a)      -13.68   -2.88   10.80  Al(OH)3
	Albite          -45.78  -63.78  -18.00  NaAlSi3O8
	Alunite         -56.37  -57.77   -1.40  KAl3(SO4)2(OH)6
	Anhydrite        -0.36   -4.72   -4.36  CaSO4
	Anorthite       -46.96  -66.67  -19.71  CaAl2Si2O8
	Aragonite        -0.14   -8.48   -8.34  CaCO3
	Barite           -0.29  -10.26   -9.97  BaSO4
	Ca-Montmorillonite -69.35 -114.38  -45.03  Ca0.165Al2.33Si3.67O10(OH)2
	Calcite           0.00   -8.48   -8.48  CaCO3
	Celestite        -1.29   -7.92   -6.63  SrSO4
	CH4(g)         -125.21 -128.07   -2.86  CH4
	Chalcedony      -12.10  -15.66   -3.55  SiO2
	CO2(g)           -6.06   -7.53   -1.47  CO2
	Gibbsite        -10.99   -2.88    8.11  Al(OH)3
	Gypsum           -0.15   -4.73   -4.58  CaSO4:2H2O
	H2(g)           -36.23  -39.38   -3.15  H2
	H2O(g)           -1.51   -0.00    1.51  H2O
	H2S(g)         -123.79 -124.79   -1.00  H2S
	Halite           -5.47   -3.89    1.58  NaCl
	K-feldspar      -60.15  -80.73  -20.57  KAlSi3O8
	K-mica          -76.53  -63.82   12.70  KAl3Si3O10(OH)2
	Kaolinite       -44.51  -37.07    7.43  Al2Si2O5(OH)4
	N2(g)            -0.11   -3.37   -3.26  N2
	NH3(g)          -51.51  -49.74    1.77  NH3
	O2(g)           -10.66  -13.62   -2.96  O2
	Quartz          -11.68  -15.66   -3.98  SiO2
	SiO2(a)         -12.94  -15.66   -2.71  SiO2
	Strontianite     -2.41  -11.68   -9.27  SrCO3
	Sulfur          -93.43  -88.55    4.88  S
	Witherite        -5.45  -14.01   -8.56  BaCO3

Time 0.0001. Cell 2: x=              1	y=              0	z=              0
Using solution 2.
Using exchange 2
Using surface 2.
Using pure phase assemblage 2.
Using solid solution assemblage 2.
Using gas phase 2.
Using kinetics 2.

Kinetics.

	Time:      0.0001 seconds
	Time step: 0.0001 seconds

	Rate name       Delta Moles Total Moles   Reactant        Coefficient

	K-feldspar       -1.110e-16   1.000e+00   K-feldspar                1
	Pyrite            0.000e+00   1.000e+00   Pyrite                    1

-----------------------------------Gas phase-----------------------------------


Total pressure:   0.7704   atmospheres
    Gas volume:   1.00e+00 liters

                                                        Moles in gas
                                            ----------------------------------
Component                log P           P     Initial       Final       Delta

N2(g)                    -0.11   7.704e-01   3.149e-02   3.149e-02   0.000e+00
O2(g)                   -10.66   2.196e-11   8.977e-13   8.977e-13   0.000e+00

-------------------------------Phase assemblage--------------------------------

                                                      Moles in assemblage
Phase                  SI log IAP  log KT      Initial       Final       Delta

Calcite              0.00   -8.48   -8.48    9.999e-01   9.999e-01  -1.520e-09

--------------------------------Solid solutions--------------------------------


Solid solution                Component        Moles  Delta moles   Mole fract

CaSrBaSO4                                   1.94e+00
                              Anhydrite     8.40e-01    -1.97e-06     4.33e-01
                                 Barite     1.00e+00    -9.71e-12     5.16e-01
                              Celestite     9.99e-02    -1.88e-09     5.15e-02

------------------------------Surface composition------------------------------

Surf          
	  0.000e+00  Surface charge, eq
Surf          
	  1.000e+10  moles
	                                   Mole                     Log
	Species               Moles    Fraction    Molality    Molality

	Surf              1.000e+10       1.000   1.000e+10      10.000
	SurfA             1.046e-08       0.000   1.046e-08      -7.980

-----------------------------Exchange composition------------------------------

X                2.000e+00 mol

	                               Equiv-    Equivalent      Log 
	Species             Moles      alents      Fraction     Gamma

	NaX               1.691e+00   1.691e+00   8.454e-01    -0.146
	CaX2              1.545e-01   3.089e-01   1.545e-01    -0.567
	SrX2              1.271e-04   2.543e-04   1.271e-04    -0.568
	BaX2              6.784e-07   1.357e-06   6.784e-07    -0.633
	KX                1.029e-16   1.029e-16   5.146e-17    -0.181
	AlOHX2            4.431e-25   8.862e-25   4.431e-25    -0.545
	AlX3              3.228e-29   9.685e-29   4.843e-29    -1.012
	NH4X              4.554e-49   4.554e-49   2.277e-49    -0.212

-----------------------------Solution composition------------------------------

	Elements           Molality       Moles

	A                 9.537e-09   9.537e-09
	Al                1.068e-16   1.068e-16
	Ba                3.398e-08   3.398e-08
	Br                2.000e-08   2.000e-08
	C                 1.040e-04   1.040e-04
	Ca                6.004e-03   6.004e-03
	Cl                1.000e-03   1.000e-03
	K                 3.896e-18   3.896e-18
	N                 7.817e-04   7.817e-04
	Na                3.102e-01   3.102e-01
	S                 1.605e-01   1.605e-01
	Si                3.204e-16   3.204e-16
	Sr                3.778e-06   3.778e-06

----------------------------Description of solution----------------------------

                                       pH  =   9.444      Charge balance
                                       pe  =   8.673      Adjusted to redox equilibrium
                        Activity of water  =   0.993
                           Ionic strength  =   4.023e-01
                       Mass of water (kg)  =   1.000e+00
                 Total alkalinity (eq/kg)  =   1.982e-04
                       Total CO2 (mol/kg)  =   1.040e-04
                      Temperature (deg C)  =  25.000
                  Electrical balance (eq)  =  -4.182e-10
 Percent error, 100*(Cat-|An|)/(Cat+|An|)  =  -0.00
                               Iterations  =  38
                                  Total H  = 1.110124e+02
                                  Total O  = 5.614850e+01

----------------------------Distribution of species----------------------------

                                                   Log       Log         Log 
   Species                 Molality    Activity  Molality  Activity     Gamma

   OH-                    4.246e-05   2.762e-05    -4.372    -4.559    -0.187
   H+                     4.660e-10   3.598e-10    -9.332    -9.444    -0.112
   H2O                    5.551e+01   9.925e-01     1.744    -0.003     0.000
A                9.537e-09
   A                      9.537e-09   1.046e-08    -8.021    -7.980     0.040
Al               1.068e-16
   Al(OH)4-               1.068e-16   7.805e-17   -15.971   -16.108    -0.136
   Al(OH)3                1.368e-20   1.501e-20   -19.864   -19.824     0.040
   Al(OH)2+               5.053e-23   3.693e-23   -22.296   -22.433    -0.136
   AlOH+2                 5.988e-27   1.708e-27   -26.223   -26.768    -0.545
   AlSO4+                 7.304e-30   5.338e-30   -29.136   -29.273    -0.136
   Al(SO4)2-              6.255e-30   4.571e-30   -29.204   -29.340    -0.136
   Al+3                   6.400e-31   6.232e-32   -30.194   -31.205    -1.012
   AlHSO4+2               5.970e-40   1.703e-40   -39.224   -39.769    -0.545
Ba               3.398e-08
   BaSO4                  2.522e-08   2.766e-08    -7.598    -7.558     0.040
   Ba+2                   8.755e-09   2.038e-09    -8.058    -8.691    -0.633
   BaCO3                  4.565e-12   5.008e-12   -11.341   -11.300     0.040
   BaHCO3+                9.754e-13   7.129e-13   -12.011   -12.147    -0.136
   BaOH+                  2.607e-13   1.905e-13   -12.584   -12.720    -0.136
Br               2.000e-08
   Br-                    2.000e-08   1.265e-08    -7.699    -7.898    -0.199
C(-4)            0.000e+00
   CH4                    0.000e+00   0.000e+00  -128.107  -128.066     0.040
C(4)             1.040e-04
   HCO3-                  5.179e-05   3.649e-05    -4.286    -4.438    -0.152
   NaCO3-                 2.370e-05   1.732e-05    -4.625    -4.761    -0.136
   CO3-2                  1.930e-05   4.756e-06    -4.715    -5.323    -0.608
   CaCO3                  5.073e-06   5.565e-06    -5.295    -5.255     0.040
   NaHCO3                 3.659e-06   4.014e-06    -5.437    -5.396     0.040
   CaHCO3+                4.602e-07   3.242e-07    -6.337    -6.489    -0.152
   CO2                    2.711e-08   2.974e-08    -7.567    -7.527     0.040
   SrCO3                  1.228e-09   1.347e-09    -8.911    -8.871     0.040
   SrHCO3+                3.514e-10   2.476e-10    -9.454    -9.606    -0.152
   BaCO3                  4.565e-12   5.008e-12   -11.341   -11.300     0.040
   BaHCO3+                9.754e-13   7.129e-13   -12.011   -12.147    -0.136
Ca               6.004e-03
   CaSO4                  3.431e-03   3.764e-03    -2.465    -2.424     0.040
   Ca+2                   2.568e-03   6.965e-04    -2.590    -3.157    -0.567
   CaCO3                  5.073e-06   5.565e-06    -5.295    -5.255     0.040
   CaHCO3+                4.602e-07   3.242e-07    -6.337    -6.489    -0.152
   CaOH+                  4.363e-07   3.189e-07    -6.360    -6.496    -0.136
   CaHSO4+                1.085e-11   7.932e-12   -10.964   -11.101    -0.136
Cl               1.000e-03
   Cl-                    1.000e-03   6.594e-04    -3.000    -3.181    -0.181
H(0)             7.529e-40
   H2                     3.764e-40   4.130e-40   -39.424   -39.384     0.040
K                3.896e-18
   K+                     3.325e-18   2.193e-18   -17.478   -17.659    -0.181
   KSO4-                  5.710e-19   4.173e-19   -18.243   -18.380    -0.136
   KOH                    1.912e-23   2.098e-23   -22.718   -22.678     0.040
N(-3)            0.000e+00
   NH4+                   0.000e+00   0.000e+00   -49.732   -49.945    -0.212
   NH3                    0.000e+00   0.000e+00   -49.785   -49.745     0.040
   NH4SO4-                0.000e+00   0.000e+00   -50.266   -50.402    -0.136
N(0)             7.719e-04
   N2                     3.859e-04   4.234e-04    -3.413    -3.373     0.040
N(3)             2.142e-13
   NO2-                   2.142e-13   1.355e-13   -12.669   -12.868    -0.199
N(5)             9.809e-06
   NO3-                   9.809e-06   6.206e-06    -5.008    -5.207    -0.199
Na               3.102e-01
   Na+                    2.738e-01   1.956e-01    -0.563    -0.709    -0.146
   NaSO4-                 3.633e-02   2.655e-02    -1.440    -1.576    -0.136
   NaCO3-                 2.370e-05   1.732e-05    -4.625    -4.761    -0.136
   NaHCO3                 3.659e-06   4.014e-06    -5.437    -5.396     0.040
   NaOH                   3.250e-06   3.565e-06    -5.488    -5.448     0.040
O(0)             4.390e-14
   O2                     2.195e-14   2.408e-14   -13.659   -13.618     0.040
S(-2)            0.000e+00
   HS-                    0.000e+00   0.000e+00  -122.098  -122.285    -0.187
   H2S                    0.000e+00   0.000e+00  -124.827  -124.787     0.040
   S-2                    0.000e+00   0.000e+00  -125.126  -125.759    -0.633
S(6)             1.605e-01
   SO4-2                  1.207e-01   2.708e-02    -0.918    -1.567    -0.649
   NaSO4-                 3.633e-02   2.655e-02    -1.440    -1.576    -0.136
   CaSO4                  3.431e-03   3.764e-03    -2.465    -2.424     0.040
   SrSO4                  2.135e-06   2.343e-06    -5.671    -5.630     0.040
   BaSO4                  2.522e-08   2.766e-08    -7.598    -7.558     0.040
   HSO4-                  1.296e-09   9.473e-10    -8.887    -9.024    -0.136
   CaHSO4+                1.085e-11   7.932e-12   -10.964   -11.101    -0.136
   KSO4-                  5.710e-19   4.173e-19   -18.243   -18.380    -0.136
   AlSO4+                 7.304e-30   5.338e-30   -29.136   -29.273    -0.136
   Al(SO4)2-              6.255e-30   4.571e-30   -29.204   -29.340    -0.136
   AlHSO4+2               5.970e-40   1.703e-40   -39.224   -39.769    -0.545
   NH4SO4-                0.000e+00   0.000e+00   -50.266   -50.402    -0.136
Si               3.204e-16
   H4SiO4                 1.983e-16   2.176e-16   -15.703   -15.662     0.040
   H3SiO4-                1.220e-16   8.918e-17   -15.914   -16.050    -0.136
   H2SiO4-2               5.911e-20   1.686e-20   -19.228   -19.773    -0.545
Sr               3.778e-06
   SrSO4                  2.135e-06   2.343e-06    -5.671    -5.630     0.040
   Sr+2                   1.641e-06   4.436e-07    -5.785    -6.353    -0.568
   SrCO3                  1.228e-09   1.347e-09    -8.911    -8.871     0.040
   SrHCO3+                3.514e-10   2.476e-10    -9.454    -9.606    -0.152
   SrOH+                  9.036e-11   6.276e-11   -10.044   -10.202    -0.158

------------------------------Saturation indices-------------------------------

	Phase               SI log IAP  log KT

	Al(OH)3(a)      -13.68   -2.88   10.80  Al(OH)3
	Albite          -45.78  -63.78  -18.00  NaAlSi3O8
	Alunite         -56.37  -57.77   -1.40  KAl3(SO4)2(OH)6
	Anhydrite        -0.36   -4.72   -4.36  CaSO4
	Anorthite       -46.96  -66.67  -19.71  CaAl2Si2O8
	Aragonite        -0.14   -8.48   -8.34  CaCO3
	Barite           -0.29  -10.26   -9.97  BaSO4
	Ca-Montmorillonite -69.35 -114.38  -45.03  Ca0.165Al2.33Si3.67O10(OH)2
	Calcite           0.00   -8.48   -8.48  CaCO3
	Celestite        -1.29   -7.92   -6.63  SrSO4
	CH4(g)         -125.21 -128.07   -2.86  CH4
	Chalcedony      -12.10  -15.66   -3.55  SiO2
	CO2(g)           -6.06   -7.53   -1.47  CO2
	Gibbsite        -10.99   -2.88    8.11  Al(OH)3
	Gypsum           -0.15   -4.73   -4.58  CaSO4:2H2O
	H2(g)           -36.23  -39.38   -3.15  H2
	H2O(g)           -1.51   -0.00    1.51  H2O
	H2S(g)         -123.79 -124.79   -1.00  H2S
	Halite           -5.47   -3.89    1.58  NaCl
	K-feldspar      -60.15  -80.73  -20.57  KAlSi3O8
	K-mica          -76.53  -63.82   12.70  KAl3Si3O10(OH)2
	Kaolinite       -44.51  -37.07    7.43  Al2Si2O5(OH)4
	N2(g)            -0.11   -3.37   -3.26  N2
	NH3(g)          -51.51  -49.74    1.77  NH3
	O2(g)           -10.66  -13.62   -2.96  O2
	Quartz          -11.68  -15.66   -3.98  SiO2
	SiO2(a)         -12.94  -15.66   -2.71  SiO2
	Strontianite     -2.41  -11.68   -9.27  SrCO3
	Sulfur          -93.43  -88.55    4.88  S
	Witherite        -5.45  -14.01   -8.56  BaCO3

Time 0.0001. Cell 3: x=              0	y=              1	z=              0
Using solution 3.
Using exchange 3
Using surface 3.
Using pure phase assemblage 3.
Using solid solution assemblage 3.
Using gas phase 3.
Using kinetics 3.

Kinetics.

	Time:      0.0001 seconds
	Time step: 0.0001 seconds

	Rate name       Delta Moles Total Moles   Reactant        Coefficient

	K-feldspar       -1.110e-16   1.000e+00   K-feldspar                1
	Pyrite            0.000e+00   1.000e+00   Pyrite                    1

-----------------------------------Gas phase-----------------------------------


Total pressure:   0.7704   atmospheres
    Gas volume:   1.00e+00 liters

                                                        Moles in gas
                                            ----------------------------------
Component                log P           P     Initial       Final       Delta

N2(g)                    -0.11   7.704e-01   3.149e-02   3.149e-02   0.000e+00
O2(g)                   -10.66   2.196e-11   8.977e-13   8.977e-13   0.000e+00

-------------------------------Phase assemblage--------------------------------

                                                      Moles in assemblage
Phase                  SI log IAP  log KT      Initial       Final       Delta

Calcite              0.00   -8.48   -8.48    9.999e-01   9.999e-01  -1.520e-09

--------------------------------Solid solutions--------------------------------


Solid solution                Component        Moles  Delta moles   Mole fract

CaSrBaSO4                                   1.94e+00
                              Anhydrite     8.40e-01    -1.97e-06     4.33e-01
                                 Barite     1.00e+00    -9.71e-12     5.16e-01
                              Celestite     9.99e-02    -1.88e-09     5.15e-02

------------------------------Surface composition------------------------------

Surf          
	  0.000e+00  Surface charge, eq
Surf          
	  1.000e+10  moles
	                                   Mole                     Log
	Species               Moles    Fraction    Molality    Molality

	Surf              1.000e+10       1.000   1.000e+10      10.000
	SurfA             1.046e-08       0.000   1.046e-08      -7.980

-----------------------------Exchange composition------------------------------

X                2.000e+00 mol

	                               Equiv-    Equivalent      Log 
	Species             Moles      alents      Fraction     Gamma

	NaX               1.691e+00   1.691e+00   8.454e-01    -0.146
	CaX2              1.545e-01   3.089e-01   1.545e-01    -0.567
	SrX2              1.271e-04   2.543e-04   1.271e-04    -0.568
	BaX2              6.784e-07   1.357e-06   6.784e-07    -0.633
	KX                1.029e-16   1.029e-16   5.146e-17    -0.181
	AlOHX2            4.431e-25   8.862e-25   4.431e-25    -0.545
	AlX3              3.228e-29   9.685e-29   4.843e-29    -1.012
	NH4X              4.554e-49   4.554e-49   2.277e-49    -0.212

-----------------------------Solution composition------------------------------

	Elements           Molality       Moles

	A                 9.537e-09   9.537e-09
	Al                1.068e-16   1.068e-16
	Ba                3.398e-08   3.398e-08
	Br                2.000e-08   2.000e-08
	C                 1.040e-04   1.040e-04
	Ca                6.004e-03   6.004e-03
	Cl                1.000e-03   1.000e-03
	K                 3.896e-18   3.896e-18
	N                 7.817e-04   7.817e-04
	Na                3.102e-01   3.102e-01
	S                 1.605e-01   1.605e-01
	Si                3.204e-16   3.204e-16
	Sr                3.778e-06   3.778e-06

----------------------------Description of solution----------------------------

                                       pH  =   9.444      Charge balance
                                       pe  =   8.673      Adjusted to redox equilibrium
                        Activity of water  =   0.993
                           Ionic strength  =   4.023e-01
                       Mass of water (kg)  =   1.000e+00
                 Total alkalinity (eq/kg)  =   1.982e-04
                       Total CO2 (mol/kg)  =   1.040e-04
                      Temperature (deg C)  =  25.000
                  Electrical balance (eq)  =  -4.182e-10
 Percent error, 100*(Cat-|An|)/(Cat+|An|)  =  -0.00
                               Iterations  =  38
                                  Total H  = 1.110124e+02
                                  Total O  = 5.614850e+01

----------------------------Distribution of species----------------------------

                                                   Log       Log         Log 
   Species                 Molality    Activity  Molality  Activity     Gamma

   OH-                    4.246e-05   2.762e-05    -4.372    -4.559    -0.187
   H+                     4.660e-10   3.598e-10    -9.332    -9.444    -0.112
   H2O                    5.551e+01   9.925e-01     1.744    -0.003     0.000
A                9.537e-09
   A                      9.537e-09   1.046e-08    -8.021    -7.980     0.040
Al               1.068e-16
   Al(OH)4-               1.068e-16   7.805e-17   -15.971   -16.108    -0.136
   Al(OH)3                1.368e-20   1.501e-20   -19.864   -19.824     0.040
   Al(OH)2+               5.053e-23   3.693e-23   -22.296   -22.433    -0.136
   AlOH+2                 5.988e-27   1.708e-27   -26.223   -26.768    -0.545
   AlSO4+                 7.304e-30   5.338e-30   -29.136   -29.273    -0.136
   Al(SO4)2-              6.255e-30   4.571e-30   -29.204   -29.340    -0.136
   Al+3                   6.400e-31   6.232e-32   -30.194   -31.205    -1.012
   AlHSO4+2               5.970e-40   1.703e-40   -39.224   -39.769    -0.545
Ba               3.398e-08
   BaSO4                  2.522e-08   2.766e-08    -7.598    -7.558     0.040
   Ba+2                   8.755e-09   2.038e-09    -8.058    -8.691    -0.633
   BaCO3                  4.565e-12   5.008e-12   -11.341   -11.300     0.040
   BaHCO3+                9.754e-13   7.129e-13   -12.011   -12.147    -0.136
   BaOH+                  2.607e-13   1.905e-13   -12.584   -12.720    -0.136
Br               2.000e-08
   Br-                    2.000e-08   1.265e-08    -7.699    -7.898    -0.199
C(-4)            0.000e+00
   CH4                    0.000e+00   0.000e+00  -128.107  -128.066     0.040
C(4)             1.040e-04
   HCO3-                  5.179e-05   3.649e-05    -4.286    -4.438    -0.152
   NaCO3-                 2.370e-05   1.732e-05    -4.625    -4.761    -0.136
   CO3-2                  1.930e-05   4.756e-06    -4.715    -5.323    -0.608
   CaCO3                  5.073e-06   5.565e-06    -5.295    -5.255     0.040
   NaHCO3                 3.659e-06   4.014e-06    -5.437    -5.396     0.040
   CaHCO3+                4.602e-07   3.242e-07    -6.337    -6.489    -0.152
   CO2                    2.711e-08   2.974e-08    -7.567    -7.527     0.040
   SrCO3                  1.228e-09   1.347e-09    -8.911    -8.871     0.040
   SrHCO3+                3.514e-10   2.476e-10    -9.454    -9.606    -0.152
   BaCO3                  4.565e-12   5.008e-12   -11.341   -11.300     0.040
   BaHCO3+                9.754e-13   7.129e-13   -12.011   -12.147    -0.136
Ca               6.004e-03
   CaSO4                  3.431e-03   3.764e-03    -2.465    -2.424     0.040
   Ca+2                   2.568e-03   6.965e-04    -2.590    -3.157    -0.567
   CaCO3                  5.073e-06   5.565e-06    -5.295    -5.255     0.040
   CaHCO3+                4.602e-07   3.242e-07    -6.337    -6.489    -0.152
   CaOH+                  4.363e-07   3.189e-07    -6.360    -6.496    -0.136
   CaHSO4+                1.085e-11   7.932e-12   -10.964   -11.101    -0.136
Cl               1.000e-03
   Cl-                    1.000e-03   6.594e-04    -3.000    -3.181    -0.181
H(0)             7.529e-40
   H2                     3.764e-40   4.130e-40   -39.424   -39.384     0.040
K                3.896e-18
   K+                     3.325e-18   2.193e-18   -17.478   -17.659    -0.181
   KSO4-                  5.710e-19   4.173e-19   -18.243   -18.380    -0.136
   KOH                    1.912e-23   2.098e-23   -22.718   -22.678     0.040
N(-3)            0.000e+00
   NH4+                   0.000e+00   0.000e+00   -49.732   -49.945    -0.212
   NH3                    0.000e+00   0.000e+00   -49.785   -49.745     0.040
   NH4SO4-                0.000e+00   0.000e+00   -50.266   -50.402    -0.136
N(0)             7.719e-04
   N2                     3.859e-04   4.234e-04    -3.413    -3.373     0.040
N(3)             2.142e-13
   NO2-                   2.142e-13   1.355e-13   -12.669   -12.868    -0.199
N(5)             9.809e-06
   NO3-                   9.809e-06   6.206e-06    -5.008    -5.207    -0.199
Na               3.102e-01
   Na+                    2.738e-01   1.956e-01    -0.563    -0.709    -0.146
   NaSO4-                 3.633e-02   2.655e-02    -1.440    -1.576    -0.136
   NaCO3-                 2.370e-05   1.732e-05    -4.625    -4.761    -0.136
   NaHCO3                 3.659e-06   4.014e-06    -5.437    -5.396     0.040
   NaOH                   3.250e-06   3.565e-06    -5.488    -5.448     0.040
O(0)             4.390e-14
   O2                     2.195e-14   2.408e-14   -13.659   -13.618     0.040
S(-2)            0.000e+00
   HS-                    0.000e+00   0.000e+00  -122.098  -122.285    -0.187
   H2S                    0.000e+00   0.000e+00  -124.827  -124.787     0.040
   S-2                    0.000e+00   0.000e+00  -125.126  -125.759    -0.633
S(6)             1.605e-01
   SO4-2                  1.207e-01   2.708e-02    -0.918    -1.567    -0.649
   NaSO4-                 3.633e-02   2.655e-02    -1.440    -1.576    -0.136
   CaSO4                  3.431e-03   3.764e-03    -2.465    -2.424     0.040
   SrSO4                  2.135e-06   2.343e-06    -5.671    -5.630     0.040
   BaSO4                  2.522e-08   2.766e-08    -7.598    -7.558     0.040
   HSO4-                  1.296e-09   9.473e-10    -8.887    -9.024    -0.136
   CaHSO4+                1.085e-11   7.932e-12   -10.964   -11.101    -0.136
   KSO4-                  5.710e-19   4.173e-19   -18.243   -18.380    -0.136
   AlSO4+                 7.304e-30   5.338e-30   -29.136   -29.273    -0.136
   Al(SO4)2-              6.255e-30   4.571e-30   -29.204   -29.340    -0.136
   AlHSO4+2               5.970e-40   1.703e-40   -39.224   -39.769    -0.545
   NH4SO4-                0.000e+00   0.000e+00   -50.266   -50.402    -0.136
Si               3.204e-16
   H4SiO4                 1.983e-16   2.176e-16   -15.703   -15.662     0.040
   H3SiO4-                1.220e-16   8.918e-17   -15.914   -16.050    -0.136
   H2SiO4-2               5.911e-20   1.686e-20   -19.228   -19.773    -0.545
Sr               3.778e-06
   SrSO4                  2.135e-06   2.343e-06    -5.671    -5.630     0.040
   Sr+2                   1.641e-06   4.436e-07    -5.785    -6.353    -0.568
   SrCO3                  1.228e-09   1.347e-09    -8.911    -8.871     0.040
   SrHCO3+                3.514e-10   2.476e-10    -9.454    -9.606    -0.152
   SrOH+                  9.036e-11   6.276e-11   -10.044   -10.202    -0.158

------------------------------Saturation indices-------------------------------

	Phase               SI log IAP  log KT

	Al(OH)3(a)      -13.68   -2.88   10.80  Al(OH)3
	Albite          -45.78  -63.78  -18.00  NaAlSi3O8
	Alunite         -56.37  -57.77   -1.40  KAl3(SO4)2(OH)6
	Anhydrite        -0.36   -4.72   -4.36  CaSO4
	Anorthite       -46.96  -66.67  -19.71  CaAl2Si2O8
	Aragonite        -0.14   -8.48   -8.34  CaCO3
	Barite           -0.29  -10.26   -9.97  BaSO4
	Ca-Montmorillonite -69.35 -114.38  -45.03  Ca0.165Al2.33Si3.67O10(OH)2
	Calcite           0.00   -8.48   -8.48  CaCO3
	Celestite        -1.29   -7.92   -6.63  SrSO4
	CH4(g)         -125.21 -128.07   -2.86  CH4
	Chalcedony      -12.10  -15.66   -3.55  SiO2
	CO2(g)           -6.06   -7.53   -1.47  CO2
	Gibbsite        -10.99   -2.88    8.11  Al(OH)3
	Gypsum           -0.15   -4.73   -4.58  CaSO4:2H2O
	H2(g)           -36.23  -39.38   -3.15  H2
	H2O(g)           -1.51   -0.00    1.51  H2O
	H2S(g)         -123.79 -124.79   -1.00  H2S
	Halite           -5.47   -3.89    1.58  NaCl
	K-feldspar      -60.15  -80.73  -20.57  KAlSi3O8
	K-mica          -76.53  -63.82   12.70  KAl3Si3O10(OH)2
	Kaolinite       -44.51  -37.07    7.43  Al2Si2O5(OH)4
	N2(g)            -0.11   -3.37   -3.26  N2
	NH3(g)          -51.51  -49.74    1.77  NH3
	O2(g)           -10.66  -13.62   -2.96  O2
	Quartz          -11.68  -15.66   -3.98  SiO2
	SiO2(a)         -12.94  -15.66   -2.71  SiO2
	Strontianite     -2.41  -11.68   -9.27  SrCO3
	Sulfur          -93.43  -88.55    4.88  S
	Witherite        -5.45  -14.01   -8.56  BaCO3

Time 0.0001. Cell 4: x=              1	y=              1	z=              0
Using solution 4.
Using exchange 4
Using surface 4.
Using pure phase assemblage 4.
Using solid solution assemblage 4.
Using gas phase 4.
Using kinetics 4.

Kinetics.

	Time:      0.0001 seconds
	Time step: 0.0001 seconds

	Rate name       Delta Moles Total Moles   Reactant        Coefficient

	K-feldspar       -1.110e-16   1.000e+00   K-feldspar                1
	Pyrite            0.000e+00   1.000e+00   Pyrite                    1

-----------------------------------Gas phase-----------------------------------


Total pressure:   0.7704   atmospheres
    Gas volume:   1.00e+00 liters

                                                        Moles in gas
                                            ----------------------------------
Component                log P           P     Initial       Final       Delta

N2(g)                    -0.11   7.704e-01   3.149e-02   3.149e-02   0.000e+00
O2(g)                   -10.66   2.196e-11   8.977e-13   8.977e-13   0.000e+00

-------------------------------Phase assemblage--------------------------------

                                                      Moles in assemblage
Phase                  SI log IAP  log KT      Initial       Final       Delta

Calcite              0.00   -8.48   -8.48    9.999e-01   9.999e-01  -1.520e-09

--------------------------------Solid solutions--------------------------------


Solid solution                Component        Moles  Delta moles   Mole fract

CaSrBaSO4                                   1.94e+00
                              Anhydrite     8.40e-01    -1.97e-06     4.33e-01
                                 Barite     1.00e+00    -9.71e-12     5.16e-01
                              Celestite     9.99e-02    -1.88e-09     5.15e-02

------------------------------Surface composition------------------------------

Surf          
	  0.000e+00  Surface charge, eq
Surf          
	  1.000e+10  moles
	                                   Mole                     Log
	Species               Moles    Fraction    Molality    Molality

	Surf              1.000e+10       1.000   1.000e+10      10.000
	SurfA             1.046e-08       0.000   1.046e-08      -7.980

-----------------------------Exchange composition------------------------------

X                2.000e+00 mol

	                               Equiv-    Equivalent      Log 
	Species             Moles      alents      Fraction     Gamma

	NaX               1.691e+00   1.691e+00   8.454e-01    -0.146
	CaX2              1.545e-01   3.089e-01   1.545e-01    -0.567
	SrX2              1.271e-04   2.543e-04   1.271e-04    -0.568
	BaX2              6.784e-07   1.357e-06   6.784e-07    -0.633
	KX                1.029e-16   1.029e-16   5.146e-17    -0.181
	AlOHX2            4.431e-25   8.862e-25   4.431e-25    -0.545
	AlX3              3.228e-29   9.685e-29   4.843e-29    -1.012
	NH4X              4.554e-49   4.554e-49   2.277e-49    -0.212

-----------------------------Solution composition------------------------------

	Elements           Molality       Moles

	A                 9.537e-09   9.537e-09
	Al                1.068e-16   1.068e-16
	Ba                3.398e-08   3.398e-08
	Br                2.000e-08   2.000e-08
	C                 1.040e-04   1.040e-04
	Ca                6.004e-03   6.004e-03
	Cl                1.000e-03   1.000e-03
	K                 3.896e-18   3.896e-18
	N                 7.817e-04   7.817e-04
	Na                3.102e-01   3.102e-01
	S                 1.605e-01   1.605e-01
	Si                3.204e-16   3.204e-16
	Sr                3.778e-06   3.778e-06

----------------------------Description of solution----------------------------

                                       pH  =   9.444      Charge balance
                                       pe  =   8.673      Adjusted to redox equilibrium
                        Activity of water  =   0.993
                           Ionic strength  =   4.023e-01
                       Mass of water (kg)  =   1.000e+00
                 Total alkalinity (eq/kg)  =   1.982e-04
                       Total CO2 (mol/kg)  =   1.040e-04
                      Temperature (deg C)  =  25.000
                  Electrical balance (eq)  =  -4.182e-10
 Percent error, 100*(Cat-|An|)/(Cat+|An|)  =  -0.00
                               Iterations  =  38
                                  Total H  = 1.110124e+02
                                  Total O  = 5.614850e+01

----------------------------Distribution of species----------------------------

                                                   Log       Log         Log 
   Species                 Molality    Activity  Molality  Activity     Gamma

   OH-                    4.246e-05   2.762e-05    -4.372    -4.559    -0.187
   H+                     4.660e-10   3.598e-10    -9.332    -9.444    -0.112
   H2O                    5.551e+01   9.925e-01     1.744    -0.003     0.000
A                9.537e-09
   A                      9.537e-09   1.046e-08    -8.021    -7.980     0.040
Al               1.068e-16
   Al(OH)4-               1.068e-16   7.805e-17   -15.971   -16.108    -0.136
   Al(OH)3                1.368e-20   1.501e-20   -19.864   -19.824     0.040
   Al(OH)2+               5.053e-23   3.693e-23   -22.296   -22.433    -0.136
   AlOH+2                 5.988e-27   1.708e-27   -26.223   -26.768    -0.545
   AlSO4+                 7.304e-30   5.338e-30   -29.136   -29.273    -0.136
   Al(SO4)2-              6.255e-30   4.571e-30   -29.204   -29.340    -0.136
   Al+3                   6.400e-31   6.232e-32   -30.194   -31.205    -1.012
   AlHSO4+2               5.970e-40   1.703e-40   -39.224   -39.769    -0.545
Ba               3.398e-08
   BaSO4                  2.522e-08   2.766e-08    -7.598    -7.558     0.040
   Ba+2                   8.755e-09   2.038e-09    -8.058    -8.691    -0.633
   BaCO3                  4.565e-12   5.008e-12   -11.341   -11.300     0.040
   BaHCO3+                9.754e-13   7.129e-13   -12.011   -12.147    -0.136
   BaOH+                  2.607e-13   1.905e-13   -12.584   -12.720    -0.136
Br               2.000e-08
   Br-                    2.000e-08   1.265e-08    -7.699    -7.898    -0.199
C(-4)            0.000e+00
   CH4                    0.000e+00   0.000e+00  -128.107  -128.066     0.040
C(4)             1.040e-04
   HCO3-                  5.179e-05   3.649e-05    -4.286    -4.438    -0.152
   NaCO3-                 2.370e-05   1.732e-05    -4.625    -4.761    -0.136
   CO3-2                  1.930e-05   4.756e-06    -4.715    -5.323    -0.608
   CaCO3                  5.073e-06   5.565e-06    -5.295    -5.255     0.040
   NaHCO3                 3.659e-06   4.014e-06    -5.437    -5.396     0.040
   CaHCO3+                4.602e-07   3.242e-07    -6.337    -6.489    -0.152
   CO2                    2.711e-08   2.974e-08    -7.567    -7.527     0.040
   SrCO3                  1.228e-09   1.347e-09    -8.911    -8.871     0.040
   SrHCO3+                3.514e-10   2.476e-10    -9.454    -9.606    -0.152
   BaCO3                  4.565e-12   5.008e-12   -11.341   -11.300     0.040
   BaHCO3+                9.754e-13   7.129e-13   -12.011   -12.147    -0.136
Ca               6.004e-03
   CaSO4                  3.431e-03   3.764e-03    -2.465    -2.424     0.040
   Ca+2                   2.568e-03   6.965e-04    -2.590    -3.157    -0.567
   CaCO3                  5.073e-06   5.565e-06    -5.295    -5.255     0.040
   CaHCO3+                4.602e-07   3.242e-07    -6.337    -6.489    -0.152
   CaOH+                  4.363e-07   3.189e-07    -6.360    -6.496    -0.136
   CaHSO4+                1.085e-11   7.932e-12   -10.964   -11.101    -0.136
Cl               1.000e-03
   Cl-                    1.000e-03   6.594e-04    -3.000    -3.181    -0.181
H(0)             7.529e-40
   H2                     3.764e-40   4.130e-40   -39.424   -39.384     0.040
K                3.896e-18
   K+                     3.325e-18   2.193e-18   -17.478   -17.659    -0.181
   KSO4-                  5.710e-19   4.173e-19   -18.243   -18.380    -0.136
   KOH                    1.912e-23   2.098e-23   -22.718   -22.678     0.040
N(-3)            0.000e+00
   NH4+                   0.000e+00   0.000e+00   -49.732   -49.945    -0.212
   NH3                    0.000e+00   0.000e+00   -49.785   -49.745     0.040
   NH4SO4-                0.000e+00   0.000e+00   -50.266   -50.402    -0.136
N(0)             7.719e-04
   N2                     3.859e-04   4.234e-04    -3.413    -3.373     0.040
N(3)             2.142e-13
   NO2-                   2.142e-13   1.355e-13   -12.669   -12.868    -0.199
N(5)             9.809e-06
   NO3-                   9.809e-06   6.206e-06    -5.008    -5.207    -0.199
Na               3.102e-01
   Na+                    2.738e-01   1.956e-01    -0.563    -0.709    -0.146
   NaSO4-                 3.633e-02   2.655e-02    -1.440    -1.576    -0.136
   NaCO3-                 2.370e-05   1.732e-05    -4.625    -4.761    -0.136
   NaHCO3                 3.659e-06   4.014e-06    -5.437    -5.396     0.040
   NaOH                   3.250e-06   3.565e-06    -5.488    -5.448     0.040
O(0)             4.390e-14
   O2                     2.195e-14   2.408e-14   -13.659   -13.618     0.040
S(-2)            0.000e+00
   HS-                    0.000e+00   0.000e+00  -122.098  -122.285    -0.187
   H2S                    0.000e+00   0.000e+00  -124.827  -124.787     0.040
   S-2                    0.000e+00   0.000e+00  -125.126  -125.759    -0.633
S(6)             1.605e-01
   SO4-2                  1.207e-01   2.708e-02    -0.918    -1.567    -0.649
   NaSO4-                 3.633e-02   2.655e-02    -1.440    -1.576    -0.136
   CaSO4                  3.431e-03   3.764e-03    -2.465    -2.424     0.040
   SrSO4                  2.135e-06   2.343e-06    -5.671    -5.630     0.040
   BaSO4                  2.522e-08   2.766e-08    -7.598    -7.558     0.040
   HSO4-                  1.296e-09   9.473e-10    -8.887    -9.024    -0.136
   CaHSO4+                1.085e-11   7.932e-12   -10.964   -11.101    -0.136
   KSO4-                  5.710e-19   4.173e-19   -18.243   -18.380    -0.136
   AlSO4+                 7.304e-30   5.338e-30   -29.136   -29.273    -0.136
   Al(SO4)2-              6.255e-30   4.571e-30   -29.204   -29.340    -0.136
   AlHSO4+2               5.970e-40   1.703e-40   -39.224   -39.769    -0.545
   NH4SO4-                0.000e+00   0.000e+00   -50.266   -50.402    -0.136
Si               3.204e-16
   H4SiO4                 1.983e-16   2.176e-16   -15.703   -15.662     0.040
   H3SiO4-                1.220e-16   8.918e-17   -15.914   -16.050    -0.136
   H2SiO4-2               5.911e-20   1.686e-20   -19.228   -19.773    -0.545
Sr               3.778e-06
   SrSO4                  2.135e-06   2.343e-06    -5.671    -5.630     0.040
   Sr+2                   1.641e-06   4.436e-07    -5.785    -6.353    -0.568
   SrCO3                  1.228e-09   1.347e-09    -8.911    -8.871     0.040
   SrHCO3+                3.514e-10   2.476e-10    -9.454    -9.606    -0.152
   SrOH+                  9.036e-11   6.276e-11   -10.044   -10.202    -0.158

------------------------------Saturation indices-------------------------------

	Phase               SI log IAP  log KT

	Al(OH)3(a)      -13.68   -2.88   10.80  Al(OH)3
	Albite          -45.78  -63.78  -18.00  NaAlSi3O8
	Alunite         -56.37  -57.77   -1.40  KAl3(SO4)2(OH)6
	Anhydrite        -0.36   -4.72   -4.36  CaSO4
	Anorthite       -46.96  -66.67  -19.71  CaAl2Si2O8
	Aragonite        -0.14   -8.48   -8.34  CaCO3
	Barite           -0.29  -10.26   -9.97  BaSO4
	Ca-Montmorillonite -69.35 -114.38  -45.03  Ca0.165Al2.33Si3.67O10(OH)2
	Calcite           0.00   -8.48   -8.48  CaCO3
	Celestite        -1.29   -7.92   -6.63  SrSO4
	CH4(g)         -125.21 -128.07   -2.86  CH4
	Chalcedony      -12.10  -15.66   -3.55  SiO2
	CO2(g)           -6.06   -7.53   -1.47  CO2
	Gibbsite        -10.99   -2.88    8.11  Al(OH)3
	Gypsum           -0.15   -4.73   -4.58  CaSO4:2H2O
	H2(g)           -36.23  -39.38   -3.15  H2
	H2O(g)           -1.51   -0.00    1.51  H2O
	H2S(g)         -123.79 -124.79   -1.00  H2S
	Halite           -5.47   -3.89    1.58  NaCl
	K-feldspar      -60.15  -80.73  -20.57  KAlSi3O8
	K-mica          -76.53  -63.82   12.70  KAl3Si3O10(OH)2
	Kaolinite       -44.51  -37.07    7.43  Al2Si2O5(OH)4
	N2(g)            -0.11   -3.37   -3.26  N2
	NH3(g)          -51.51  -49.74    1.77  NH3
	O2(g)           -10.66  -13.62   -2.96  O2
	Quartz          -11.68  -15.66   -3.98  SiO2
	SiO2(a)         -12.94  -15.66   -2.71  SiO2
	Strontianite     -2.41  -11.68   -9.27  SrCO3
	Sulfur          -93.43  -88.55    4.88  S
	Witherite        -5.45  -14.01   -8.56  BaCO3

Time 0.0001. Cell 5: x=              0	y=              0	z=              1
Cell is dry.
Time 0.0001. Cell 6: x=              1	y=              0	z=              1
Cell is dry.
Time 0.0001. Cell 7: x=              0	y=              1	z=              1
Cell is dry.
Time 0.0001. Cell 8: x=              1	y=              1	z=              1
Cell is dry.
Time 0.0001. Cell 9: x=              0	y=              0	z=              2
Cell is dry.
Time 0.0001. Cell 10: x=              1	y=              0	z=              2
Cell is dry.
Time 0.0001. Cell 11: x=              0	y=              1	z=              2
Cell is dry.
Time 0.0001. Cell 12: x=              1	y=              1	z=              2
Cell is dry.
Time 0.0001. Cell 13: x=              0	y=              0	z=              3
Cell is dry.
Time 0.0001. Cell 14: x=              1	y=              0	z=              3
Cell is dry.
Time 0.0001. Cell 15: x=              0	y=              1	z=              3
Cell is dry.
Time 0.0001. Cell 16: x=              1	y=              1	z=              3
Cell is dry.
Time 0.0001. Cell 17: x=              0	y=              0	z=              4
Cell is dry.
Time 0.0001. Cell 18: x=              1	y=              0	z=              4
Cell is dry.
Time 0.0001. Cell 19: x=              0	y=              1	z=              4
Cell is dry.
Time 0.0001. Cell 20: x=              1	y=              1	z=              4
Cell is dry.
Time 0.0002. Cell 1: x=              0	y=              0	z=              0
Using solution 1.
Using exchange 1
Using surface 1.
Using pure phase assemblage 1.
Using solid solution assemblage 1.
Using gas phase 1.
Using kinetics 1.

Kinetics.

	Time:      0.0002 seconds
	Time step: 0.0001 seconds

	Rate name       Delta Moles Total Moles   Reactant        Coefficient

	K-feldspar       -1.110e-16   1.000e+00   K-feldspar                1
	Pyrite            0.000e+00   1.000e+00   Pyrite                    1

-----------------------------------Gas phase-----------------------------------


Total pressure:   0.7704   atmospheres
    Gas volume:   1.00e+00 liters

                                                        Moles in gas
                                            ----------------------------------
Component                log P           P     Initial       Final       Delta

N2(g)                    -0.11   7.704e-01   3.149e-02   3.149e-02   0.000e+00
O2(g)                   -10.66   2.196e-11   8.977e-13   8.977e-13   0.000e+00

-------------------------------Phase assemblage--------------------------------

                                                      Moles in assemblage
Phase                  SI log IAP  log KT      Initial       Final       Delta

Calcite              0.00   -8.48   -8.48    9.999e-01   9.999e-01  -3.220e-15

--------------------------------Solid solutions--------------------------------


Solid solution                Component        Moles  Delta moles   Mole fract

CaSrBaSO4                                   1.94e+00
                              Anhydrite     8.40e-01     7.27e-14     4.33e-01
                                 Barite     1.00e+00     0.00e+00     5.16e-01
                              Celestite     9.99e-02     9.71e-17     5.15e-02

------------------------------Surface composition------------------------------

Surf          
	  0.000e+00  Surface charge, eq
Surf          
	  1.000e+10  moles
	                                   Mole                     Log
	Species               Moles    Fraction    Molality    Molality

	Surf              1.000e+10       1.000   1.000e+10      10.000
	SurfA             1.046e-08       0.000   1.046e-08      -7.980

-----------------------------Exchange composition------------------------------

X                2.000e+00 mol

	                               Equiv-    Equivalent      Log 
	Species             Moles      alents      Fraction     Gamma

	NaX               1.691e+00   1.691e+00   8.454e-01    -0.146
	CaX2              1.545e-01   3.089e-01   1.545e-01    -0.567
	SrX2              1.271e-04   2.543e-04   1.271e-04    -0.568
	BaX2              6.784e-07   1.357e-06   6.784e-07    -0.633
	KX                2.021e-16   2.021e-16   1.010e-16    -0.181
	AlOHX2            4.431e-25   8.862e-25   4.431e-25    -0.545
	AlX3              3.228e-29   9.685e-29   4.843e-29    -1.012
	NH4X              4.554e-49   4.554e-49   2.277e-49    -0.212

-----------------------------Solution composition------------------------------

	Elements           Molality       Moles

	A                 9.537e-09   9.537e-09
	Al                1.068e-16   1.068e-16
	Ba                3.398e-08   3.398e-08
	Br                2.000e-08   2.000e-08
	C                 1.040e-04   1.040e-04
	Ca                6.004e-03   6.004e-03
	Cl                1.000e-03   1.000e-03
	K                 7.650e-18   7.650e-18
	N                 7.817e-04   7.817e-04
	Na                3.102e-01   3.102e-01
	S                 1.605e-01   1.605e-01
	Si                3.204e-16   3.204e-16
	Sr                3.778e-06   3.778e-06

----------------------------Description of solution----------------------------

                                       pH  =   9.444      Charge balance
                                       pe  =   8.673      Adjusted to redox equilibrium
                        Activity of water  =   0.993
                           Ionic strength  =   4.023e-01
                       Mass of water (kg)  =   1.000e+00
                 Total alkalinity (eq/kg)  =   1.982e-04
                       Total CO2 (mol/kg)  =   1.040e-04
                      Temperature (deg C)  =  25.000
                  Electrical balance (eq)  =  -3.806e-10
 Percent error, 100*(Cat-|An|)/(Cat+|An|)  =  -0.00
                               Iterations  =  11
                                  Total H  = 1.110124e+02
                                  Total O  = 5.614850e+01

----------------------------Distribution of species----------------------------

                                                   Log       Log         Log 
   Species                 Molality    Activity  Molality  Activity     Gamma

   OH-                    4.246e-05   2.762e-05    -4.372    -4.559    -0.187
   H+                     4.660e-10   3.598e-10    -9.332    -9.444    -0.112
   H2O                    5.551e+01   9.925e-01     1.744    -0.003     0.000
A                9.537e-09
   A                      9.537e-09   1.046e-08    -8.021    -7.980     0.040
Al               1.068e-16
   Al(OH)4-               1.068e-16   7.805e-17   -15.971   -16.108    -0.136
   Al(OH)3                1.368e-20   1.501e-20   -19.864   -19.824     0.040
   Al(OH)2+               5.053e-23   3.693e-23   -22.296   -22.433    -0.136
   AlOH+2                 5.988e-27   1.708e-27   -26.223   -26.768    -0.545
   AlSO4+                 7.304e-30   5.338e-30   -29.136   -29.273    -0.136
   Al(SO4)2-              6.255e-30   4.571e-30   -29.204   -29.340    -0.136
   Al+3                   6.400e-31   6.232e-32   -30.194   -31.205    -1.012
   AlHSO4+2               5.970e-40   1.703e-40   -39.224   -39.769    -0.545
Ba               3.398e-08
   BaSO4                  2.522e-08   2.766e-08    -7.598    -7.558     0.040
   Ba+2                   8.755e-09   2.038e-09    -8.058    -8.691    -0.633
   BaCO3                  4.565e-12   5.008e-12   -11.341   -11.300     0.040
   BaHCO3+                9.754e-13   7.129e-13   -12.011   -12.147    -0.136
   BaOH+                  2.607e-13   1.905e-13   -12.584   -12.720    -0.136
Br               2.000e-08
   Br-                    2.000e-08   1.265e-08    -7.699    -7.898    -0.199
C(-4)            0.000e+00
   CH4                    0.000e+00   0.000e+00  -128.107  -128.066     0.040
C(4)             1.040e-04
   HCO3-                  5.179e-05   3.649e-05    -4.286    -4.438    -0.152
   NaCO3-                 2.370e-05   1.732e-05    -4.625    -4.761    -0.136
   CO3-2                  1.930e-05   4.756e-06    -4.715    -5.323    -0.608
   CaCO3                  5.073e-06   5.565e-06    -5.295    -5.255     0.040
   NaHCO3                 3.659e-06   4.014e-06    -5.437    -5.396     0.040
   CaHCO3+                4.602e-07   3.242e-07    -6.337    -6.489    -0.152
   CO2                    2.711e-08   2.974e-08    -7.567    -7.527     0.040
   SrCO3                  1.228e-09   1.347e-09    -8.911    -8.871     0.040
   SrHCO3+                3.514e-10   2.476e-10    -9.454    -9.606    -0.152
   BaCO3                  4.565e-12   5.008e-12   -11.341   -11.300     0.040
   BaHCO3+                9.754e-13   7.129e-13   -12.011   -12.147    -0.136
Ca               6.004e-03
   CaSO4                  3.431e-03   3.764e-03    -2.465    -2.424     0.040
   Ca+2                   2.568e-03   6.965e-04    -2.590    -3.157    -0.567
   CaCO3                  5.073e-06   5.565e-06    -5.295    -5.255     0.040
   CaHCO3+                4.602e-07   3.242e-07    -6.337    -6.489    -0.152
   CaOH+                  4.363e-07   3.189e-07    -6.360    -6.496    -0.136
   CaHSO4+                1.085e-11   7.932e-12   -10.964   -11.101    -0.136
Cl               1.000e-03
   Cl-                    1.000e-03   6.594e-04    -3.000    -3.181    -0.181
H(0)             7.529e-40
   H2                     3.764e-40   4.130e-40   -39.424   -39.384     0.040
K                7.650e-18
   K+                     6.529e-18   4.306e-18   -17.185   -17.366    -0.181
   KSO4-                  1.121e-18   8.193e-19   -17.950   -18.087    -0.136
   KOH                    3.754e-23   4.119e-23   -22.425   -22.385     0.040
N(-3)            0.000e+00
   NH4+                   0.000e+00   0.000e+00   -49.732   -49.945    -0.212
   NH3                    0.000e+00   0.000e+00   -49.785   -49.745     0.040
   NH4SO4-                0.000e+00   0.000e+00   -50.266   -50.402    -0.136
N(0)             7.719e-04
   N2                     3.859e-04   4.234e-04    -3.413    -3.373     0.040
N(3)             2.142e-13
   NO2-                   2.142e-13   1.355e-13   -12.669   -12.868    -0.199
N(5)             9.809e-06
   NO3-                   9.809e-06   6.206e-06    -5.008    -5.207    -0.199
Na               3.102e-01
   Na+                    2.738e-01   1.956e-01    -0.563    -0.709    -0.146
   NaSO4-                 3.633e-02   2.655e-02    -1.440    -1.576    -0.136
   NaCO3-                 2.370e-05   1.732e-05    -4.625    -4.761    -0.136
   NaHCO3                 3.659e-06   4.014e-06    -5.437    -5.396     0.040
   NaOH                   3.250e-06   3.565e-06    -5.488    -5.448     0.040
O(0)             4.390e-14
   O2                     2.195e-14   2.408e-14   -13.659   -13.618     0.040
S(-2)            0.000e+00
   HS-                    0.000e+00   0.000e+00  -122.098  -122.285    -0.187
   H2S                    0.000e+00   0.000e+00  -124.827  -124.787     0.040
   S-2                    0.000e+00   0.000e+00  -125.126  -125.759    -0.633
S(6)             1.605e-01
   SO4-2                  1.207e-01   2.708e-02    -0.918    -1.567    -0.649
   NaSO4-                 3.633e-02   2.655e-02    -1.440    -1.576    -0.136
   CaSO4                  3.431e-03   3.764e-03    -2.465    -2.424     0.040
   SrSO4                  2.135e-06   2.343e-06    -5.671    -5.630     0.040
   BaSO4                  2.522e-08   2.766e-08    -7.598    -7.558     0.040
   HSO4-                  1.296e-09   9.473e-10    -8.887    -9.024    -0.136
   CaHSO4+                1.085e-11   7.932e-12   -10.964   -11.101    -0.136
   KSO4-                  1.121e-18   8.193e-19   -17.950   -18.087    -0.136
   AlSO4+                 7.304e-30   5.338e-30   -29.136   -29.273    -0.136
   Al(SO4)2-              6.255e-30   4.571e-30   -29.204   -29.340    -0.136
   AlHSO4+2               5.970e-40   1.703e-40   -39.224   -39.769    -0.545
   NH4SO4-                0.000e+00   0.000e+00   -50.266   -50.402    -0.136
Si               3.204e-16
   H4SiO4                 1.983e-16   2.176e-16   -15.703   -15.662     0.040
   H3SiO4-                1.220e-16   8.918e-17   -15.914   -16.050    -0.136
   H2SiO4-2               5.911e-20   1.686e-20   -19.228   -19.773    -0.545
Sr               3.778e-06
   SrSO4                  2.135e-06   2.343e-06    -5.671    -5.630     0.040
   Sr+2                   1.641e-06   4.436e-07    -5.785    -6.353    -0.568
   SrCO3                  1.228e-09   1.347e-09    -8.911    -8.871     0.040
   SrHCO3+                3.514e-10   2.476e-10    -9.454    -9.606    -0.152
   SrOH+                  9.036e-11   6.276e-11   -10.044   -10.202    -0.158

------------------------------Saturation indices-------------------------------

	Phase               SI log IAP  log KT

	Al(OH)3(a)      -13.68   -2.88   10.80  Al(OH)3
	Albite          -45.78  -63.78  -18.00  NaAlSi3O8
	Alunite         -56.07  -57.47   -1.40  KAl3(SO4)2(OH)6
	Anhydrite        -0.36   -4.72   -4.36  CaSO4
	Anorthite       -46.96  -66.67  -19.71  CaAl2Si2O8
	Aragonite        -0.14   -8.48   -8.34  CaCO3
	Barite           -0.29  -10.26   -9.97  BaSO4
	Ca-Montmorillonite -69.35 -114.38  -45.03  Ca0.165Al2.33Si3.67O10(OH)2
	Calcite           0.00   -8.48   -8.48  CaCO3
	Celestite        -1.29   -7.92   -6.63  SrSO4
	CH4(g)         -125.21 -128.07   -2.86  CH4
	Chalcedony      -12.10  -15.66   -3.55  SiO2
	CO2(g)           -6.06   -7.53   -1.47  CO2
	Gibbsite        -10.99   -2.88    8.11  Al(OH)3
	Gypsum           -0.15   -4.73   -4.58  CaSO4:2H2O
	H2(g)           -36.23  -39.38   -3.15  H2
	H2O(g)           -1.51   -0.00    1.51  H2O
	H2S(g)         -123.79 -124.79   -1.00  H2S
	Halite           -5.47   -3.89    1.58  NaCl
	K-feldspar      -59.86  -80.43  -20.57  KAlSi3O8
	K-mica          -76.23  -63.53   12.70  KAl3Si3O10(OH)2
	Kaolinite       -44.51  -37.07    7.43  Al2Si2O5(OH)4
	N2(g)            -0.11   -3.37   -3.26  N2
	NH3(g)          -51.51  -49.74    1.77  NH3
	O2(g)           -10.66  -13.62   -2.96  O2
	Quartz          -11.68  -15.66   -3.98  SiO2
	SiO2(a)         -12.94  -15.66   -2.71  SiO2
	Strontianite     -2.41  -11.68   -9.27  SrCO3
	Sulfur          -93.43  -88.55    4.88  S
	Witherite        -5.45  -14.01   -8.56  BaCO3

Time 0.0002. Cell 2: x=              1	y=              0	z=              0
Using solution 2.
Using exchange 2
Using surface 2.
Using pure phase assemblage 2.
Using solid solution assemblage 2.
Using gas phase 2.
Using kinetics 2.

Kinetics.

	Time:      0.0002 seconds
	Time step: 0.0001 seconds

	Rate name       Delta Moles Total Moles   Reactant        Coefficient

	K-feldspar       -1.110e-16   1.000e+00   K-feldspar                1
	Pyrite            0.000e+00   1.000e+00   Pyrite                    1

-----------------------------------Gas phase-----------------------------------


Total pressure:   0.7704   atmospheres
    Gas volume:   1.00e+00 liters

                                                        Moles in gas
                                            ----------------------------------
Component                log P           P     Initial       Final       Delta

N2(g)                    -0.11   7.704e-01   3.149e-02   3.149e-02   0.000e+00
O2(g)                   -10.66   2.196e-11   8.977e-13   8.977e-13   0.000e+00

-------------------------------Phase assemblage--------------------------------

                                                      Moles in assemblage
Phase                  SI log IAP  log KT      Initial       Final       Delta

Calcite              0.00   -8.48   -8.48    9.999e-01   9.999e-01  -9.992e-16

--------------------------------Solid solutions--------------------------------


Solid solution                Component        Moles  Delta moles   Mole fract

CaSrBaSO4                                   1.94e+00
                              Anhydrite     8.40e-01    -9.33e-15     4.33e-01
                                 Barite     1.00e+00     0.00e+00     5.16e-01
                              Celestite     9.99e-02    -1.39e-17     5.15e-02

------------------------------Surface composition------------------------------

Surf          
	  0.000e+00  Surface charge, eq
Surf          
	  1.000e+10  moles
	                                   Mole                     Log
	Species               Moles    Fraction    Molality    Molality

	Surf              1.000e+10       1.000   1.000e+10      10.000
	SurfA             1.046e-08       0.000   1.046e-08      -7.980

-----------------------------Exchange composition------------------------------

X                2.000e+00 mol

	                               Equiv-    Equivalent      Log 
	Species             Moles      alents      Fraction     Gamma

	NaX               1.691e+00   1.691e+00   8.454e-01    -0.146
	CaX2              1.545e-01   3.089e-01   1.545e-01    -0.567
	SrX2              1.271e-04   2.543e-04   1.271e-04    -0.568
	BaX2              6.784e-07   1.357e-06   6.784e-07    -0.633
	KX                2.021e-16   2.021e-16   1.010e-16    -0.181
	AlOHX2            4.431e-25   8.862e-25   4.431e-25    -0.545
	AlX3              3.228e-29   9.685e-29   4.843e-29    -1.012
	NH4X              4.554e-49   4.554e-49   2.277e-49    -0.212

-----------------------------Solution composition------------------------------

	Elements           Molality       Moles

	A                 9.537e-09   9.537e-09
	Al                1.068e-16   1.068e-16
	Ba                3.398e-08   3.398e-08
	Br                2.000e-08   2.000e-08
	C                 1.040e-04   1.040e-04
	Ca                6.004e-03   6.004e-03
	Cl                1.000e-03   1.000e-03
	K                 7.650e-18   7.650e-18
	N                 7.817e-04   7.817e-04
	Na                3.102e-01   3.102e-01
	S                 1.605e-01   1.605e-01
	Si                3.204e-16   3.204e-16
	Sr                3.778e-06   3.778e-06

----------------------------Description of solution----------------------------

                                       pH  =   9.444      Charge balance
                                       pe  =   8.673      Adjusted to redox equilibrium
                        Activity of water  =   0.993
                           Ionic strength  =   4.023e-01
                       Mass of water (kg)  =   1.000e+00
                 Total alkalinity (eq/kg)  =   1.982e-04
                       Total CO2 (mol/kg)  =   1.040e-04
                      Temperature (deg C)  =  25.000
                  Electrical balance (eq)  =  -4.182e-10
 Percent error, 100*(Cat-|An|)/(Cat+|An|)  =  -0.00
                               Iterations  =  11
                                  Total H  = 1.110124e+02
                                  Total O  = 5.614850e+01

----------------------------Distribution of species----------------------------

                                                   Log       Log         Log 
   Species                 Molality    Activity  Molality  Activity     Gamma

   OH-                    4.246e-05   2.762e-05    -4.372    -4.559    -0.187
   H+                     4.660e-10   3.598e-10    -9.332    -9.444    -0.112
   H2O                    5.551e+01   9.925e-01     1.744    -0.003     0.000
A                9.537e-09
   A                      9.537e-09   1.046e-08    -8.021    -7.980     0.040
Al               1.068e-16
   Al(OH)4-               1.068e-16   7.805e-17   -15.971   -16.108    -0.136
   Al(OH)3                1.368e-20   1.501e-20   -19.864   -19.824     0.040
   Al(OH)2+               5.053e-23   3.693e-23   -22.296   -22.433    -0.136
   AlOH+2                 5.988e-27   1.708e-27   -26.223   -26.768    -0.545
   AlSO4+                 7.304e-30   5.338e-30   -29.136   -29.273    -0.136
   Al(SO4)2-              6.255e-30   4.571e-30   -29.204   -29.340    -0.136
   Al+3                   6.400e-31   6.232e-32   -30.194   -31.205    -1.012
   AlHSO4+2               5.970e-40   1.703e-40   -39.224   -39.769    -0.545
Ba               3.398e-08
   BaSO4                  2.522e-08   2.766e-08    -7.598    -7.558     0.040
[...]
Si               2.575e-11
   H4SiO4                 1.588e-11   1.695e-11   -10.799   -10.771     0.028
   H3SiO4-                9.865e-12   7.252e-12   -11.006   -11.140    -0.134
   H2SiO4-2               4.901e-15   1.431e-15   -14.310   -14.844    -0.535
Sr               4.274e-06
   SrSO4                  2.324e-06   2.481e-06    -5.634    -5.605     0.028
   Sr+2                   1.948e-06   5.740e-07    -5.710    -6.241    -0.531
   SrCO3                  1.451e-09   1.548e-09    -8.838    -8.810     0.028
   SrHCO3+                3.759e-10   2.726e-10    -9.425    -9.564    -0.139
   SrOH+                  1.186e-10   8.498e-11    -9.926   -10.071    -0.145

------------------------------Saturation indices-------------------------------

	Phase               SI log IAP  log KT

	Al(OH)3(a)       -8.80    2.00   10.80  Al(OH)3
	Albite          -26.35  -44.36  -18.00  NaAlSi3O8
	Alunite         -37.11  -38.51   -1.40  KAl3(SO4)2(OH)6
	Anhydrite        -0.40   -4.76   -4.36  CaSO4
	Anorthite       -27.32  -47.03  -19.71  CaAl2Si2O8
	Aragonite        -0.14   -8.48   -8.34  CaCO3
	Barite           -0.26  -10.23   -9.97  BaSO4
	Ca-Montmorillonite -40.01  -85.04  -45.03  Ca0.165Al2.33Si3.67O10(OH)2
	Calcite           0.00   -8.48   -8.48  CaCO3
	Celestite        -1.26   -7.90   -6.63  SrSO4
	CH4(g)         -117.79 -120.65   -2.86  CH4
	Chalcedony       -7.21  -10.77   -3.55  SiO2
	CO2(g)           -6.15   -7.62   -1.47  CO2
	Fe(OH)3(a)      -15.88  -10.99    4.89  Fe(OH)3
	FeS(ppt)       -135.57 -139.48   -3.92  FeS
	Gibbsite         -6.11    2.00    8.11  Al(OH)3
	Goethite         -9.98  -10.98   -1.00  FeOOH
	Gypsum           -0.18   -4.76   -4.58  CaSO4:2H2O
	H2(g)           -34.36  -37.51   -3.15  H2
	H2O(g)           -1.51   -0.00    1.51  H2O
	H2S(g)         -116.41 -117.40   -1.00  H2S
	Halite          -10.31   -8.72    1.58  NaCl
	Hematite        -17.96  -21.97   -4.01  Fe2O3
	Jarosite-K      -68.28  -77.49   -9.21  KFe3(SO4)2(OH)6
	K-feldspar      -35.76  -56.33  -20.57  KAlSi3O8
	K-mica          -42.36  -29.65   12.70  KAl3Si3O10(OH)2
	Kaolinite       -24.96  -17.52    7.43  Al2Si2O5(OH)4
	Mackinawite    -134.84 -139.48   -4.65  FeS
	Melanterite     -33.52  -35.73   -2.21  FeSO4:7H2O
	N2(g)            -0.12   -3.38   -3.26  N2
	NH3(g)          -48.70  -46.93    1.77  NH3
	O2(g)           -14.41  -17.37   -2.96  O2
	Pyrite         -210.99 -229.47  -18.48  FeS2
	Quartz           -6.79  -10.77   -3.98  SiO2
	Siderite        -28.55  -39.44  -10.89  FeCO3
	SiO2(a)          -8.05  -10.77   -2.71  SiO2
	Strontianite     -2.34  -11.62   -9.27  SrCO3
	Sulfur          -87.93  -83.05    4.88  S
	Witherite        -5.39  -13.95   -8.56  BaCO3

Time 10. Cell 6: x=              1	y=              0	z=              1
Cell is dry.
Time 10. Cell 7: x=              0	y=              1	z=              1
Cell is dry.
Time 10. Cell 8: x=              1	y=              1	z=              1
Using solution 8.
Using exchange 8
Using surface 8.
Using pure phase assemblage 8.
Using solid solution assemblage 8.
Using gas phase 8.
Using kinetics 8.

Kinetics.

	Time:      10 seconds
	Time step: 1 seconds

	Rate name       Delta Moles Total Moles   Reactant        Coefficient

	K-feldspar       -1.073e-12   1.000e+00   K-feldspar                1
	Pyrite            0.000e+00   1.000e+00   Pyrite                    1

-----------------------------------Gas phase-----------------------------------


Total pressure:   0.7609   atmospheres
    Gas volume:   1.00e+00 liters

                                                        Moles in gas
                                            ----------------------------------
Component                log P           P     Initial       Final       Delta

N2(g)                    -0.12   7.609e-01   3.110e-02   3.110e-02   0.000e+00
O2(g)                   -14.41   3.872e-15   1.582e-16   1.583e-16   0.000e+00

-------------------------------Phase assemblage--------------------------------

                                                      Moles in assemblage
Phase                  SI log IAP  log KT      Initial       Final       Delta

Calcite              0.00   -8.48   -8.48    9.998e-01   9.998e-01  -4.605e-13

--------------------------------Solid solutions--------------------------------


Solid solution                Component        Moles  Delta moles   Mole fract

CaSrBaSO4                                   1.83e+00
                              Anhydrite     7.30e-01     4.56e-10     3.99e-01
                                 Barite     1.00e+00     3.44e-15     5.47e-01
                              Celestite     9.97e-02     5.85e-13     5.45e-02

------------------------------Surface composition------------------------------

Surf          
	  0.000e+00  Surface charge, eq
Surf          
	  1.000e+10  moles
	                                   Mole                     Log
	Species               Moles    Fraction    Molality    Molality

	Surf              1.000e+10       1.000   1.000e+10      10.000
	SurfA             5.163e-04       0.000   5.163e-04      -3.287

-----------------------------Exchange composition------------------------------

X                2.000e+00 mol

	                               Equiv-    Equivalent      Log 
	Species             Moles      alents      Fraction     Gamma

	NaX               1.482e+00   1.482e+00   7.410e-01    -0.138
	CaX2              2.587e-01   5.175e-01   2.587e-01    -0.532
	SrX2              2.434e-04   4.867e-04   2.434e-04    -0.531
	BaX2              1.250e-06   2.501e-06   1.250e-06    -0.579
	KX                8.340e-12   8.340e-12   4.170e-12    -0.164
	AlOHX2            4.922e-20   9.844e-20   4.922e-20    -0.535
	AlX3              3.852e-24   1.156e-23   5.778e-24    -0.948
	FeX2              1.239e-32   2.478e-32   1.239e-32    -0.529
	NH4X              3.417e-46   3.417e-46   1.709e-46    -0.189

-----------------------------Solution composition------------------------------

	Elements           Molality       Moles

	A                 4.837e-04   4.837e-04
	Al                8.583e-12   8.583e-12
	Ba                3.750e-08   3.750e-08
	Br                1.000e-03   1.000e-03
	C                 8.070e-05   8.070e-05
	Ca                5.923e-03   5.923e-03
	Cl                2.003e-08   2.003e-08
	Fe                1.285e-23   1.285e-23
	K                 2.431e-13   2.431e-13
	N                 7.834e-04   7.834e-04
	Na                2.098e-01   2.098e-01
	S                 1.103e-01   1.103e-01
	Si                2.575e-11   2.575e-11
	Sr                4.274e-06   4.274e-06

----------------------------Description of solution----------------------------

                                       pH  =   9.463      Charge balance
                                       pe  =   7.715      Adjusted to redox equilibrium
                        Activity of water  =   0.995
                           Ionic strength  =   2.833e-01
                       Mass of water (kg)  =   1.000e+00
                 Total alkalinity (eq/kg)  =   1.614e-04
                       Total CO2 (mol/kg)  =   8.070e-05
                      Temperature (deg C)  =  25.000
                  Electrical balance (eq)  =  -8.149e-10
 Percent error, 100*(Cat-|An|)/(Cat+|An|)  =  -0.00
                               Iterations  =  11
                                  Total H  = 1.110124e+02
                                  Total O  = 5.594748e+01

----------------------------Distribution of species----------------------------

                                                   Log       Log         Log 
   Species                 Molality    Activity  Molality  Activity     Gamma

   OH-                    4.257e-05   2.890e-05    -4.371    -4.539    -0.168
   H+                     4.393e-10   3.446e-10    -9.357    -9.463    -0.105
   H2O                    5.551e+01   9.948e-01     1.744    -0.002     0.000
A                4.837e-04
   A                      4.837e-04   5.163e-04    -3.315    -3.287     0.028
Al               8.583e-12
   Al(OH)4-               8.582e-12   6.309e-12   -11.066   -11.200    -0.134
   Al(OH)3                1.086e-15   1.160e-15   -14.964   -14.936     0.028
   Al(OH)2+               3.709e-18   2.726e-18   -17.431   -17.564    -0.134
   AlOH+2                 4.126e-22   1.205e-22   -21.384   -21.919    -0.535
   AlSO4+                 4.007e-25   2.946e-25   -24.397   -24.531    -0.134
   Al(SO4)2-              2.808e-25   2.065e-25   -24.552   -24.685    -0.134
   Al+3                   3.731e-26   4.203e-27   -25.428   -26.376    -0.948
   AlHSO4+2               3.082e-35   9.001e-36   -34.511   -35.046    -0.535
Ba               3.750e-08
   BaSO4                  2.748e-08   2.933e-08    -7.561    -7.533     0.028
   Ba+2                   1.001e-08   2.641e-09    -8.000    -8.578    -0.579
   BaCO3                  5.400e-12   5.764e-12   -11.268   -11.239     0.028
   BaHCO3+                1.069e-12   7.859e-13   -11.971   -12.105    -0.134
   BaOH+                  3.513e-13   2.583e-13   -12.454   -12.588    -0.134
Br               1.000e-03
   Br-                    1.000e-03   6.640e-04    -3.000    -3.178    -0.178
C(-4)            0.000e+00
   CH4                    0.000e+00   0.000e+00  -120.675  -120.647     0.028
C(4)             8.070e-05
   HCO3-                  4.281e-05   3.105e-05    -4.368    -4.508    -0.139
   CO3-2                  1.527e-05   4.225e-06    -4.816    -5.374    -0.558
   NaCO3-                 1.471e-05   1.082e-05    -4.832    -4.966    -0.134
   CaCO3                  5.213e-06   5.565e-06    -5.283    -5.255     0.028
   NaHCO3                 2.249e-06   2.400e-06    -5.648    -5.620     0.028
   CaHCO3+                4.282e-07   3.106e-07    -6.368    -6.508    -0.139
   CO2                    2.266e-08   2.418e-08    -7.645    -7.616     0.028
   SrCO3                  1.451e-09   1.548e-09    -8.838    -8.810     0.028
   SrHCO3+                3.759e-10   2.726e-10    -9.425    -9.564    -0.139
   BaCO3                  5.400e-12   5.764e-12   -11.268   -11.239     0.028
   BaHCO3+                1.069e-12   7.859e-13   -11.971   -12.105    -0.134
   FeCO3                  8.215e-36   8.768e-36   -35.085   -35.057     0.028
   FeHCO3+                3.654e-37   2.686e-37   -36.437   -36.571    -0.134
Ca               5.923e-03
   CaSO4                  3.248e-03   3.467e-03    -2.488    -2.460     0.028
   Ca+2                   2.668e-03   7.840e-04    -2.574    -3.106    -0.532
   CaCO3                  5.213e-06   5.565e-06    -5.283    -5.255     0.028
   CaOH+                  5.109e-07   3.756e-07    -6.292    -6.425    -0.134
   CaHCO3+                4.282e-07   3.106e-07    -6.368    -6.508    -0.139
   CaHSO4+                9.522e-12   7.000e-12   -11.021   -11.155    -0.134
Cl               2.003e-08
   Cl-                    2.003e-08   1.373e-08    -7.698    -7.862    -0.164
   FeCl+                  0.000e+00   0.000e+00   -41.652   -41.785    -0.134
   FeCl+2                 0.000e+00   0.000e+00   -45.215   -45.750    -0.535
   FeCl2+                 0.000e+00   0.000e+00   -52.828   -52.962    -0.134
   FeCl3                  0.000e+00   0.000e+00   -61.852   -61.824     0.028
Fe(2)            7.281e-34
   FeSO4                  3.194e-34   3.410e-34   -33.496   -33.467     0.028
   Fe+2                   2.927e-34   8.651e-35   -33.534   -34.063    -0.529
   FeOH+                  1.074e-34   7.897e-35   -33.969   -34.103    -0.134
   FeCO3                  8.215e-36   8.768e-36   -35.085   -35.057     0.028
   FeHCO3+                3.654e-37   2.686e-37   -36.437   -36.571    -0.134
   FeCl+                  0.000e+00   0.000e+00   -41.652   -41.785    -0.134
   FeHSO4+                0.000e+00   0.000e+00   -41.979   -42.112    -0.134
   Fe(HS)2                0.000e+00   0.000e+00  -254.907  -254.879     0.028
   Fe(HS)3-               0.000e+00   0.000e+00  -367.591  -367.725    -0.134
Fe(3)            1.285e-23
   Fe(OH)4-               1.018e-23   7.483e-24   -22.992   -23.126    -0.134
   Fe(OH)3                2.663e-24   2.842e-24   -23.575   -23.546     0.028
   Fe(OH)2+               1.040e-26   7.644e-27   -25.983   -26.117    -0.134
   FeOH+2                 2.738e-32   7.997e-33   -31.563   -32.097    -0.535
   FeSO4+                 1.418e-37   1.043e-37   -36.848   -36.982    -0.134
   Fe(SO4)2-              6.877e-38   5.056e-38   -37.163   -37.296    -0.134
   Fe+3                   3.809e-39   4.291e-40   -38.419   -39.367    -0.948
   FeCl+2                 0.000e+00   0.000e+00   -45.215   -45.750    -0.535
   FeHSO4+2               0.000e+00   0.000e+00   -45.482   -46.017    -0.535
   FeCl2+                 0.000e+00   0.000e+00   -52.828   -52.962    -0.134
   Fe2(OH)2+4             0.000e+00   0.000e+00   -60.626   -62.764    -2.138
   FeCl3                  0.000e+00   0.000e+00   -61.852   -61.824     0.028
   Fe3(OH)4+5             0.000e+00   0.000e+00   -83.220   -86.561    -3.341
H(0)             5.841e-38
   H2                     2.920e-38   3.117e-38   -37.535   -37.506     0.028
K                2.431e-13
   K+                     2.123e-13   1.455e-13   -12.673   -12.837    -0.164
   KSO4-                  3.082e-14   2.266e-14   -13.511   -13.645    -0.134
   KOH                    1.364e-18   1.456e-18   -17.865   -17.837     0.028
N(-3)            0.000e+00
   NH3                    0.000e+00   0.000e+00   -46.959   -46.931     0.028
   NH4+                   0.000e+00   0.000e+00   -46.961   -47.149    -0.189
   NH4SO4-                0.000e+00   0.000e+00   -47.560   -47.694    -0.134
N(0)             7.834e-04
   N2                     3.917e-04   4.181e-04    -3.407    -3.379     0.028
N(3)             3.243e-16
   NO2-                   3.243e-16   2.153e-16   -15.489   -15.667    -0.178
N(5)             1.972e-10
   NO3-                   1.972e-10   1.309e-10    -9.705    -9.883    -0.178
Na               2.098e-01
   Na+                    1.890e-01   1.375e-01    -0.723    -0.862    -0.138
   NaSO4-                 2.077e-02   1.527e-02    -1.683    -1.816    -0.134
   NaCO3-                 1.471e-05   1.082e-05    -4.832    -4.966    -0.134
   NaOH                   2.456e-06   2.622e-06    -5.610    -5.581     0.028
   NaHCO3                 2.249e-06   2.400e-06    -5.648    -5.620     0.028
O(0)             7.955e-18
   O2                     3.977e-18   4.246e-18   -17.400   -17.372     0.028
S(-2)            0.000e+00
   HS-                    0.000e+00   0.000e+00  -114.715  -114.883    -0.168
   H2S                    0.000e+00   0.000e+00  -117.432  -117.404     0.028
   S-2                    0.000e+00   0.000e+00  -117.760  -118.338    -0.579
   Fe(HS)2                0.000e+00   0.000e+00  -254.907  -254.879     0.028
   Fe(HS)3-               0.000e+00   0.000e+00  -367.591  -367.725    -0.134
S(6)             1.103e-01
   SO4-2                  8.623e-02   2.216e-02    -1.064    -1.654    -0.590
   NaSO4-                 2.077e-02   1.527e-02    -1.683    -1.816    -0.134
   CaSO4                  3.248e-03   3.467e-03    -2.488    -2.460     0.028
   SrSO4                  2.324e-06   2.481e-06    -5.634    -5.605     0.028
   BaSO4                  2.748e-08   2.933e-08    -7.561    -7.533     0.028
   HSO4-                  1.010e-09   7.426e-10    -8.996    -9.129    -0.134
   CaHSO4+                9.522e-12   7.000e-12   -11.021   -11.155    -0.134
   KSO4-                  3.082e-14   2.266e-14   -13.511   -13.645    -0.134
   AlSO4+                 4.007e-25   2.946e-25   -24.397   -24.531    -0.134
   Al(SO4)2-              2.808e-25   2.065e-25   -24.552   -24.685    -0.134
   FeSO4                  3.194e-34   3.410e-34   -33.496   -33.467     0.028
   AlHSO4+2               3.082e-35   9.001e-36   -34.511   -35.046    -0.535
   FeSO4+                 1.418e-37   1.043e-37   -36.848   -36.982    -0.134
   Fe(SO4)2-              6.877e-38   5.056e-38   -37.163   -37.296    -0.134
   FeHSO4+                0.000e+00   0.000e+00   -41.979   -42.112    -0.134
   FeHSO4+2               0.000e+00   0.000e+00   -45.482   -46.017    -0.535
   NH4SO4-                0.000e+00   0.000e+00   -47.560   -47.694    -0.134
Si               2.575e-11
   H4SiO4                 1.588e-11   1.695e-11   -10.799   -10.771     0.028
   H3SiO4-                9.865e-12   7.252e-12   -11.006   -11.140    -0.134
   H2SiO4-2               4.901e-15   1.431e-15   -14.310   -14.844    -0.535
Sr               4.274e-06
   SrSO4                  2.324e-06   2.481e-06    -5.634    -5.605     0.028
   Sr+2                   1.948e-06   5.740e-07    -5.710    -6.241    -0.531
   SrCO3                  1.451e-09   1.548e-09    -8.838    -8.810     0.028
   SrHCO3+                3.759e-10   2.726e-10    -9.425    -9.564    -0.139
   SrOH+                  1.186e-10   8.498e-11    -9.926   -10.071    -0.145

------------------------------Saturation indices-------------------------------

	Phase               SI log IAP  log KT

	Al(OH)3(a)       -8.80    2.00   10.80  Al(OH)3
	Albite          -26.35  -44.36  -18.00  NaAlSi3O8
	Alunite         -37.11  -38.51   -1.40  KAl3(SO4)2(OH)6
	Anhydrite        -0.40   -4.76   -4.36  CaSO4
	Anorthite       -27.32  -47.03  -19.71  CaAl2Si2O8
	Aragonite        -0.14   -8.48   -8.34  CaCO3
	Barite           -0.26  -10.23   -9.97  BaSO4
	Ca-Montmorillonite -40.01  -85.04  -45.03  Ca0.165Al2.33Si3.67O10(OH)2
	Calcite           0.00   -8.48   -8.48  CaCO3
	Celestite        -1.26   -7.90   -6.63  SrSO4
	CH4(g)         -117.79 -120.65   -2.86  CH4
	Chalcedony       -7.21  -10.77   -3.55  SiO2
	CO2(g)           -6.15   -7.62   -1.47  CO2
	Fe(OH)3(a)      -15.88  -10.99    4.89  Fe(OH)3
	FeS(ppt)       -135.57 -139.48   -3.92  FeS
	Gibbsite         -6.11    2.00    8.11  Al(OH)3
	Goethite         -9.98  -10.98   -1.00  FeOOH
	Gypsum           -0.18   -4.76   -4.58  CaSO4:2H2O
	H2(g)           -34.36  -37.51   -3.15  H2
	H2O(g)           -1.51   -0.00    1.51  H2O
	H2S(g)         -116.41 -117.40   -1.00  H2S
	Halite          -10.31   -8.72    1.58  NaCl
	Hematite        -17.96  -21.97   -4.01  Fe2O3
	Jarosite-K      -68.28  -77.49   -9.21  KFe3(SO4)2(OH)6
	K-feldspar      -35.76  -56.33  -20.57  KAlSi3O8
	K-mica          -42.36  -29.65   12.70  KAl3Si3O10(OH)2
	Kaolinite       -24.96  -17.52    7.43  Al2Si2O5(OH)4
	Mackinawite    -134.84 -139.48   -4.65  FeS
	Melanterite     -33.52  -35.73   -2.21  FeSO4:7H2O
	N2(g)            -0.12   -3.38   -3.26  N2
	NH3(g)          -48.70  -46.93    1.77  NH3
	O2(g)           -14.41  -17.37   -2.96  O2
	Pyrite         -210.99 -229.47  -18.48  FeS2
	Quartz           -6.79  -10.77   -3.98  SiO2
	Siderite        -28.55  -39.44  -10.89  FeCO3
	SiO2(a)          -8.05  -10.77   -2.71  SiO2
	Strontianite     -2.34  -11.62   -9.27  SrCO3
	Sulfur          -87.93  -83.05    4.88  S
	Witherite        -5.39  -13.95   -8.56  BaCO3

Time 10. Cell 9: x=              0	y=              0	z=              2
Cell is dry.
Time 10. Cell 10: x=              1	y=              0	z=              2
Cell is dry.
Time 10. Cell 11: x=              0	y=              1	z=              2
Cell is dry.
Time 10. Cell 12: x=              1	y=              1	z=              2
Cell is dry.
Time 10. Cell 13: x=              0	y=              0	z=              3
Cell is dry.
Time 10. Cell 14: x=              1	y=              0	z=              3
Cell is dry.
Time 10. Cell 15: x=              0	y=              1	z=              3
Cell is dry.
Time 10. Cell 16: x=              1	y=              1	z=              3
Cell is dry.
Time 10. Cell 17: x=              0	y=              0	z=              4
Cell is dry.
Time 10. Cell 18: x=              1	y=              0	z=              4
Cell is dry.
Time 10. Cell 19: x=              0	y=              1	z=              4
Cell is dry.
Time 10. Cell 20: x=              1	y=              1	z=              4
Cell is dry.
