Output file:    ex4_ddl.O.chem
Chemistry file: ex4_ddl.chem.dat
Database file:  phast.dat

------------------
Reading data base.
------------------

	SOLUTION_MASTER_SPECIES
	SOLUTION_SPECIES
	PHASES
	EXCHANGE_MASTER_SPECIES
	EXCHANGE_SPECIES
	SURFACE_MASTER_SPECIES
	SURFACE_SPECIES
	RATES
	END
------------------------------------
Reading input data for simulation 1.
------------------------------------

	SURFACE_MASTER_SPECIES
	        Surf    SurfOH
	SURFACE_SPECIES
	        SurfOH = SurfOH
	                log_k   0.0
	        SurfOH  + H+ = SurfOH2+
	                log_k   7.29
	        SurfOH = SurfO- + H+
	                log_k   -8.93
	        SurfOH + AsO4-3 + 3H+ = SurfH2AsO4 + H2O
	                log_k   29.31
	        SurfOH + AsO4-3 + 2H+ = SurfHAsO4- + H2O
	                log_k   23.51
	        SurfOH + AsO4-3 = SurfOHAsO4-3
	                log_k   10.58
	SOLUTION_MASTER_SPECIES
	        As       H3AsO4        -1.0     74.9216         74.9216
	SOLUTION_SPECIES
		H3AsO4 = H2AsO4- + H+
		log_k	-2.3
		delta_h	-7.066	kJ
		H3AsO4 = HAsO4-2 + 2H+
		log_k	-9.46
		delta_h	-3.846	kJ
		H3AsO4 = AsO4-3 + 3H+
		log_k	-21.11
		delta_h	14.354	kJ
	        H3AsO4 = H2AsO4- + H+ 
	        log_k           -2.243
	        delta_h -1.69 kcal
	        H3AsO4 = HAsO4-2 + 2H+ 
	        log_k           -9.001
	        delta_h -0.92 kcal
	        H3AsO4 = AsO4-3 + 3H+
	        log_k           -20.597
	        delta_h 3.43 kcal
	        H3AsO4 = H3AsO4
	        log_k           0.0
	        H3AsO4 = AsO4-3 + 3H+
	        log_k   -20.7
	        H+ + AsO4-3 = HAsO4-2
	        log_k   11.50
	        2H+ + AsO4-3 = H2AsO4-
	        log_k           18.46
	SOLUTION 1 20 x precipitation
	        pH      4.6
	        pe      4.0     O2(g)   -0.7
	        temp    25.
	        units   mmol/kgw
	        Ca      .191625
	        Mg      .035797
	        Na      .122668
	        Cl      .133704
	        C       .01096
	        S       .235153         charge
	END
-------------------------------------------
Beginning of initial solution calculations.
-------------------------------------------

Initial solution 1.	20 x precipitation

-----------------------------Solution composition------------------------------

	Elements           Molality       Moles

	C                 1.096e-05   1.096e-05
	Ca                1.916e-04   1.916e-04
	Cl                1.337e-04   1.337e-04
	Mg                3.580e-05   3.580e-05
	Na                1.227e-04   1.227e-04
	S                 2.351e-04   2.351e-04  Charge balance

----------------------------Description of solution----------------------------

                                       pH  =   4.600    
                                       pe  =  16.005      Equilibrium with O2(g)
                        Activity of water  =   1.000
                           Ionic strength  =   1.035e-03
                       Mass of water (kg)  =   1.000e+00
                 Total alkalinity (eq/kg)  =  -2.630e-05
                       Total CO2 (mol/kg)  =   1.096e-05
                      Temperature (deg C)  =  25.000
                  Electrical balance (eq)  =   7.111e-16
 Percent error, 100*(Cat-|An|)/(Cat+|An|)  =      0
                               Iterations  =   9
                                  Total H  = 1.110125e+02
                                  Total O  = 5.550762e+01

----------------------------Distribution of species----------------------------

                                                   Log       Log         Log 
   Species                 Molality    Activity  Molality  Activity     Gamma

   H+                     2.600e-05   2.512e-05    -4.585    -4.600    -0.015
   OH-                    4.133e-10   3.985e-10    -9.384    -9.400    -0.016
   H2O                    5.551e+01   1.000e+00     1.744         0         0
C(-4)            0.000e+00
   CH4                    0.000e+00   0.000e+00  -145.418  -145.418         0
C(4)             1.096e-05
   CO2                    1.076e-05   1.076e-05    -4.968    -4.968         0
   HCO3-                  1.975e-07   1.906e-07    -6.704    -6.720    -0.015
   CaHCO3+                4.048e-10   3.907e-10    -9.393    -9.408    -0.015
   MgHCO3+                6.905e-11   6.660e-11   -10.161   -10.177    -0.016
   NaHCO3                 1.267e-11   1.267e-11   -10.897   -10.897         0
   CO3-2                  4.105e-13   3.559e-13   -12.387   -12.449    -0.062
   CaCO3                  9.601e-14   9.603e-14   -13.018   -13.018         0
   MgCO3                  1.014e-14   1.014e-14   -13.994   -13.994         0
   NaCO3-                 8.122e-16   7.833e-16   -15.090   -15.106    -0.016
Ca               1.916e-04
   Ca+2                   1.853e-04   1.606e-04    -3.732    -3.794    -0.062
   CaSO4                  6.296e-06   6.297e-06    -5.201    -5.201         0
   CaHSO4+                9.608e-10   9.267e-10    -9.017    -9.033    -0.016
   CaHCO3+                4.048e-10   3.907e-10    -9.393    -9.408    -0.015
   CaOH+                  1.100e-12   1.061e-12   -11.958   -11.974    -0.016
   CaCO3                  9.601e-14   9.603e-14   -13.018   -13.018         0
Cl               1.337e-04
   Cl-                    1.337e-04   1.289e-04    -3.874    -3.890    -0.016
H(0)             0.000e+00
   H2                     0.000e+00   0.000e+00   -44.360   -44.360         0
Mg               3.580e-05
   Mg+2                   3.442e-05   2.986e-05    -4.463    -4.525    -0.062
   MgSO4                  1.375e-06   1.375e-06    -5.862    -5.862         0
   MgHCO3+                6.905e-11   6.660e-11   -10.161   -10.177    -0.016
   MgOH+                  4.475e-12   4.316e-12   -11.349   -11.365    -0.016
   MgCO3                  1.014e-14   1.014e-14   -13.994   -13.994         0
Na               1.227e-04
   Na+                    1.225e-04   1.182e-04    -3.912    -3.927    -0.016
   NaSO4-                 1.207e-07   1.164e-07    -6.918    -6.934    -0.016
   NaHCO3                 1.267e-11   1.267e-11   -10.897   -10.897         0
   NaOH                   3.109e-14   3.109e-14   -13.507   -13.507         0
   NaCO3-                 8.122e-16   7.833e-16   -15.090   -15.106    -0.016
O(0)             4.374e-04
   O2                     2.187e-04   2.188e-04    -3.660    -3.660         0
S(-2)            0.000e+00
   H2S                    0.000e+00   0.000e+00  -137.155  -137.155         0
   HS-                    0.000e+00   0.000e+00  -139.481  -139.497    -0.016
   S-2                    0.000e+00   0.000e+00  -147.752  -147.815    -0.062
S(6)             2.351e-04
   SO4-2                  2.268e-04   1.965e-04    -3.644    -3.707    -0.062
   CaSO4                  6.296e-06   6.297e-06    -5.201    -5.201         0
   MgSO4                  1.375e-06   1.375e-06    -5.862    -5.862         0
   HSO4-                  4.975e-07   4.798e-07    -6.303    -6.319    -0.016
   NaSO4-                 1.207e-07   1.164e-07    -6.918    -6.934    -0.016
   CaHSO4+                9.608e-10   9.267e-10    -9.017    -9.033    -0.016

------------------------------Saturation indices-------------------------------

	Phase               SI log IAP  log KT

	Anhydrite        -3.14   -7.50   -4.36  CaSO4
	Aragonite        -7.91  -16.24   -8.34  CaCO3
	Calcite          -7.76  -16.24   -8.48  CaCO3
	CH4(g)         -142.56 -145.42   -2.86  CH4
	CO2(g)           -3.50   -4.97   -1.47  CO2
	Dolomite        -16.13  -33.22  -17.09  CaMg(CO3)2
	Gypsum           -2.92   -7.50   -4.58  CaSO4:2H2O
	H2(g)           -41.21  -44.36   -3.15  H2
	H2O(g)           -1.51       0    1.51  H2O
	H2S(g)         -136.16 -137.16   -1.00  H2S
	Halite           -9.40   -7.82    1.58  NaCl
	O2(g)            -0.70   -3.66   -2.96  O2
	Sulfur         -100.83  -95.95    4.88  S

------------------
End of simulation.
------------------

------------------------------------
Reading input data for simulation 2.
------------------------------------

	USE solution 1
	EQUILIBRIUM_PHASES 1
	        Dolomite        0.0     1.6
	        Calcite         0.0     0.1
	        CO2(g)          -1.5    100.
	SAVE solution 1
	END
-----------------------------------------
Beginning of batch-reaction calculations.
-----------------------------------------

Reaction step 1.

-------------------------------Phase assemblage--------------------------------

                                                      Moles in assemblage
Phase                  SI log IAP  log KT      Initial       Final       Delta

Calcite                 0   -8.48   -8.48    1.000e-01   9.966e-02  -3.441e-04
CO2(g)              -1.50   -2.97   -1.47    1.000e+02   1.000e+02  -4.066e-03
Dolomite                0  -17.09  -17.09    1.600e+00   1.599e+00  -1.349e-03

-----------------------------Solution composition------------------------------

	Elements           Molality       Moles

	C                 7.119e-03   7.119e-03
	Ca                1.885e-03   1.884e-03
	Cl                1.337e-04   1.337e-04
	Mg                1.385e-03   1.385e-03
	Na                1.227e-04   1.227e-04
	S                 2.351e-04   2.351e-04

----------------------------Description of solution----------------------------

                                       pH  =   7.047      Charge balance
                                       pe  =  13.558      Adjusted to redox equilibrium
                        Activity of water  =   1.000
                           Ionic strength  =   9.629e-03
                       Mass of water (kg)  =   9.999e-01
                 Total alkalinity (eq/kg)  =   6.057e-03
                       Total CO2 (mol/kg)  =   7.119e-03
                      Temperature (deg C)  =  25.000
                  Electrical balance (eq)  =   2.136e-15
 Percent error, 100*(Cat-|An|)/(Cat+|An|)  =      0
                               Iterations  =   9
                                  Total H  = 1.110125e+02
                                  Total O  = 5.552487e+01

----------------------------Distribution of species----------------------------

                                                   Log       Log         Log 
   Species                 Molality    Activity  Molality  Activity     Gamma

   OH-                    1.236e-07   1.115e-07    -6.908    -6.953    -0.045
   H+                     9.814e-08   8.977e-08    -7.008    -7.047    -0.039
   H2O                    5.551e+01   9.998e-01     1.744         0         0
C(-4)            0.000e+00
   CH4                    0.000e+00   0.000e+00  -143.421  -143.420     0.001
C(4)             7.119e-03
   HCO3-                  5.883e-03   5.333e-03    -2.230    -2.273    -0.043
   CO2                    1.074e-03   1.077e-03    -2.969    -2.968     0.001
   CaHCO3+                8.923e-05   8.090e-05    -4.049    -4.092    -0.043
   MgHCO3+                6.082e-05   5.496e-05    -4.216    -4.260    -0.044
   CaCO3                  5.553e-06   5.565e-06    -5.256    -5.255     0.001
   CO3-2                  4.124e-06   2.786e-06    -5.385    -5.555    -0.170
   MgCO3                  2.336e-06   2.341e-06    -5.631    -5.631     0.001
   NaHCO3                 3.310e-07   3.317e-07    -6.480    -6.479     0.001
   NaCO3-                 6.350e-09   5.738e-09    -8.197    -8.241    -0.044
Ca               1.885e-03
   Ca+2                   1.761e-03   1.189e-03    -2.754    -2.925    -0.171
   CaHCO3+                8.923e-05   8.090e-05    -4.049    -4.092    -0.043
   CaSO4                  2.881e-05   2.888e-05    -4.540    -4.539     0.001
   CaCO3                  5.553e-06   5.565e-06    -5.256    -5.255     0.001
   CaOH+                  2.432e-09   2.198e-09    -8.614    -8.658    -0.044
   CaHSO4+                1.681e-11   1.519e-11   -10.775   -10.819    -0.044
Cl               1.337e-04
   Cl-                    1.337e-04   1.206e-04    -3.874    -3.919    -0.045
H(0)             0.000e+00
   H2                     0.000e+00   0.000e+00   -44.361   -44.361     0.001
Mg               1.385e-03
   Mg+2                   1.296e-03   8.807e-04    -2.887    -3.055    -0.168
   MgHCO3+                6.082e-05   5.496e-05    -4.216    -4.260    -0.044
   MgSO4                  2.507e-05   2.513e-05    -4.601    -4.600     0.001
   MgCO3                  2.336e-06   2.341e-06    -5.631    -5.631     0.001
   MgOH+                  3.941e-08   3.561e-08    -7.404    -7.448    -0.044
Na               1.227e-04
   Na+                    1.223e-04   1.106e-04    -3.913    -3.956    -0.044
   NaHCO3                 3.310e-07   3.317e-07    -6.480    -6.479     0.001
   NaSO4-                 7.467e-08   6.747e-08    -7.127    -7.171    -0.044
   NaCO3-                 6.350e-09   5.738e-09    -8.197    -8.241    -0.044
   NaOH                   8.120e-12   8.138e-12   -11.090   -11.089     0.001
O(0)             4.375e-04
   O2                     2.187e-04   2.192e-04    -3.660    -3.659     0.001
S(-2)            0.000e+00
   HS-                    0.000e+00   0.000e+00  -142.108  -142.153    -0.045
   H2S                    0.000e+00   0.000e+00  -142.259  -142.258     0.001
   S-2                    0.000e+00   0.000e+00  -147.852  -148.024    -0.172
S(6)             2.351e-04
   SO4-2                  1.811e-04   1.217e-04    -3.742    -3.915    -0.173
   CaSO4                  2.881e-05   2.888e-05    -4.540    -4.539     0.001
   MgSO4                  2.507e-05   2.513e-05    -4.601    -4.600     0.001
   NaSO4-                 7.467e-08   6.747e-08    -7.127    -7.171    -0.044
   HSO4-                  1.176e-09   1.062e-09    -8.930    -8.974    -0.044
   CaHSO4+                1.681e-11   1.519e-11   -10.775   -10.819    -0.044

------------------------------Saturation indices-------------------------------

	Phase               SI log IAP  log KT

	Anhydrite        -2.48   -6.84   -4.36  CaSO4
	Aragonite        -0.14   -8.48   -8.34  CaCO3
	Calcite              0   -8.48   -8.48  CaCO3
	CH4(g)         -140.56 -143.42   -2.86  CH4
	CO2(g)           -1.50   -2.97   -1.47  CO2
	Dolomite             0  -17.09  -17.09  CaMg(CO3)2
	Gypsum           -2.26   -6.84   -4.58  CaSO4:2H2O
	H2(g)           -41.21  -44.36   -3.15  H2
	H2O(g)           -1.51       0    1.51  H2O
	H2S(g)         -141.26 -142.26   -1.00  H2S
	Halite           -9.46   -7.87    1.58  NaCl
	O2(g)            -0.70   -3.66   -2.96  O2
	Sulfur         -105.93 -101.05    4.88  S

------------------
End of simulation.
------------------

------------------------------------
Reading input data for simulation 3.
------------------------------------

	SOLUTION 2 Brine
	        pH      5.713
	        pe      4.0     O2(g)   -0.7
	        temp    25.
	        units   mol/kgw
	        Ca      .4655
	        Mg      .1609
	        Na      5.402
	        Cl      6.642           charge
	        C       .00396
	        S       .004725
	        As      .01 umol/kgw
	END
-------------------------------------------
Beginning of initial solution calculations.
-------------------------------------------

Initial solution 2.	Brine

-----------------------------Solution composition------------------------------

	Elements           Molality       Moles

	As                1.000e-08   1.000e-08
	C                 3.960e-03   3.960e-03
	Ca                4.655e-01   4.655e-01
	Cl                6.642e+00   6.642e+00  Charge balance
	Mg                1.609e-01   1.609e-01
	Na                5.402e+00   5.402e+00
	S                 4.725e-03   4.725e-03

----------------------------Description of solution----------------------------

                                       pH  =   5.713    
                                       pe  =  14.945      Equilibrium with O2(g)
                        Activity of water  =   0.785
                           Ionic strength  =   7.266e+00
                       Mass of water (kg)  =   1.000e+00
                 Total alkalinity (eq/kg)  =   3.758e-03
                       Total CO2 (mol/kg)  =   3.960e-03
                      Temperature (deg C)  =  25.000
                  Electrical balance (eq)  =   1.027e-12
 Percent error, 100*(Cat-|An|)/(Cat+|An|)  =      0
                               Iterations  =  11
                                  Total H  = 1.110162e+02
                                  Total O  = 5.553688e+01

----------------------------Distribution of species----------------------------

                                                   Log       Log         Log 
   Species                 Molality    Activity  Molality  Activity     Gamma

   H+                     2.755e-06   1.936e-06    -5.560    -5.713    -0.153
   OH-                    8.773e-09   4.056e-09    -8.057    -8.392    -0.335
   H2O                    5.551e+01   7.846e-01     1.744    -0.105         0
As               1.000e-08
   H2AsO4-                9.993e-09   5.476e-08    -8.000    -7.262     0.739
   H3AsO4                 3.458e-12   1.843e-11   -11.461   -10.735     0.727
   HAsO4-2                3.440e-12   3.100e-09   -11.463    -8.509     2.955
   AsO4-3                 1.137e-21   5.063e-15   -20.944   -14.296     6.649
C(-4)            0.000e+00
   CH4                    0.000e+00   0.000e+00  -144.357  -143.631     0.727
C(4)             3.960e-03
   CaHCO3+                3.015e-03   1.745e-03    -2.521    -2.758    -0.238
   HCO3-                  3.336e-04   1.931e-04    -3.477    -3.714    -0.238
   MgHCO3+                2.161e-04   1.184e-03    -3.665    -2.927     0.739
   CO2                    2.010e-04   1.071e-03    -3.697    -2.970     0.727
   NaHCO3                 1.924e-04   1.025e-03    -3.716    -2.989     0.727
   CaCO3                  1.044e-06   5.564e-06    -5.981    -5.255     0.727
   MgCO3                  4.389e-07   2.339e-06    -6.358    -5.631     0.727
   NaCO3-                 1.500e-07   8.221e-07    -6.824    -6.085     0.739
   CO3-2                  4.170e-08   4.676e-09    -7.380    -8.330    -0.950
Ca               4.655e-01
   Ca+2                   4.609e-01   7.084e-01    -0.336    -0.150     0.187
   CaHCO3+                3.015e-03   1.745e-03    -2.521    -2.758    -0.238
   CaSO4                  1.600e-03   8.528e-03    -2.796    -2.069     0.727
   CaCO3                  1.044e-06   5.564e-06    -5.981    -5.255     0.727
   CaHSO4+                1.766e-08   9.674e-08    -7.753    -7.014     0.739
   CaOH+                  8.693e-09   4.763e-08    -8.061    -7.322     0.739
Cl               6.642e+00
   Cl-                    6.642e+00   3.946e+00     0.822     0.596    -0.226
H(0)             0.000e+00
   H2                     0.000e+00   0.000e+00   -45.192   -44.465     0.727
Mg               1.609e-01
   Mg+2                   1.593e-01   5.242e-01    -0.798    -0.280     0.517
   MgSO4                  1.391e-03   7.415e-03    -2.857    -2.130     0.727
   MgHCO3+                2.161e-04   1.184e-03    -3.665    -2.927     0.739
   MgCO3                  4.389e-07   2.339e-06    -6.358    -5.631     0.727
   MgOH+                  1.407e-07   7.712e-07    -6.852    -6.113     0.739
Na               5.402e+00
   Na+                    5.401e+00   9.442e+00     0.732     0.975     0.243
   NaSO4-                 5.211e-04   2.855e-03    -3.283    -2.544     0.739
   NaHCO3                 1.924e-04   1.025e-03    -3.716    -2.989     0.727
   NaCO3-                 1.500e-07   8.221e-07    -6.824    -6.085     0.739
   NaOH                   4.743e-09   2.528e-08    -8.324    -7.597     0.727
O(0)             8.211e-05
   O2                     4.106e-05   2.188e-04    -4.387    -3.660     0.727
S(-2)            0.000e+00
   H2S                    0.000e+00   0.000e+00  -140.620  -139.894     0.727
   HS-                    0.000e+00   0.000e+00  -140.787  -141.122    -0.335
   S-2                    0.000e+00   0.000e+00  -147.315  -148.327    -1.012
S(6)             4.725e-03
   CaSO4                  1.600e-03   8.528e-03    -2.796    -2.069     0.727
   MgSO4                  1.391e-03   7.415e-03    -2.857    -2.130     0.727
   SO4-2                  1.212e-03   6.034e-05    -2.916    -4.219    -1.303
   NaSO4-                 5.211e-04   2.855e-03    -3.283    -2.544     0.739
   CaHSO4+                1.766e-08   9.674e-08    -7.753    -7.014     0.739
   HSO4-                  2.073e-09   1.136e-08    -8.683    -7.945     0.739

------------------------------Saturation indices-------------------------------

	Phase               SI log IAP  log KT

	Anhydrite        -0.01   -4.37   -4.36  CaSO4
	Aragonite        -0.14   -8.48   -8.34  CaCO3
	Calcite              0   -8.48   -8.48  CaCO3
	CH4(g)         -140.77 -143.63   -2.86  CH4
	CO2(g)           -1.50   -2.97   -1.47  CO2
	Dolomite             0  -17.09  -17.09  CaMg(CO3)2
	Gypsum               0   -4.58   -4.58  CaSO4:2H2O
	H2(g)           -41.32  -44.47   -3.15  H2
	H2O(g)           -1.62   -0.11    1.51  H2O
	H2S(g)         -138.90 -139.89   -1.00  H2S
	Halite           -0.01    1.57    1.58  NaCl
	O2(g)            -0.70   -3.66   -2.96  O2
	Sulfur         -103.46  -98.58    4.88  S

------------------
End of simulation.
------------------

------------------------------------
Reading input data for simulation 4.
------------------------------------

	USE solution 2
	EQUILIBRIUM_PHASES 2
	        Dolomite        0.0     1.6
	        Calcite         0.0     0.1
	SAVE solution 2
	END
-----------------------------------------
Beginning of batch-reaction calculations.
-----------------------------------------

Reaction step 1.

-------------------------------Phase assemblage--------------------------------

                                                      Moles in assemblage
Phase                  SI log IAP  log KT      Initial       Final       Delta

Calcite                 0   -8.48   -8.48    1.000e-01   1.002e-01   2.185e-04
Dolomite                0  -17.09  -17.09    1.600e+00   1.600e+00  -1.093e-04

-----------------------------Solution composition------------------------------

	Elements           Molality       Moles

	As                1.000e-08   1.000e-08
	C                 3.960e-03   3.960e-03
	Ca                4.654e-01   4.654e-01
	Cl                6.642e+00   6.642e+00
	Mg                1.610e-01   1.610e-01
	Na                5.402e+00   5.402e+00
	S                 4.725e-03   4.725e-03

----------------------------Description of solution----------------------------

                                       pH  =   5.713      Charge balance
                                       pe  =  14.945      Adjusted to redox equilibrium
                        Activity of water  =   0.785
                           Ionic strength  =   7.266e+00
                       Mass of water (kg)  =   1.000e+00
                 Total alkalinity (eq/kg)  =   3.758e-03
                       Total CO2 (mol/kg)  =   3.960e-03
                      Temperature (deg C)  =  25.000
                  Electrical balance (eq)  =   1.033e-12
 Percent error, 100*(Cat-|An|)/(Cat+|An|)  =      0
                               Iterations  =   2
                                  Total H  = 1.110162e+02
                                  Total O  = 5.553688e+01

----------------------------Distribution of species----------------------------

                                                   Log       Log         Log 
   Species                 Molality    Activity  Molality  Activity     Gamma

   H+                     2.754e-06   1.936e-06    -5.560    -5.713    -0.153
   OH-                    8.776e-09   4.057e-09    -8.057    -8.392    -0.335
   H2O                    5.551e+01   7.846e-01     1.744    -0.105         0
As               1.000e-08
   H2AsO4-                9.993e-09   5.476e-08    -8.000    -7.262     0.739
   H3AsO4                 3.457e-12   1.842e-11   -11.461   -10.735     0.727
   HAsO4-2                3.441e-12   3.101e-09   -11.463    -8.508     2.955
   AsO4-3                 1.138e-21   5.066e-15   -20.944   -14.295     6.649
C(-4)            0.000e+00
   CH4                    0.000e+00   0.000e+00  -144.357  -143.631     0.727
C(4)             3.960e-03
   CaHCO3+                3.015e-03   1.745e-03    -2.521    -2.758    -0.238
   HCO3-                  3.337e-04   1.931e-04    -3.477    -3.714    -0.238
   MgHCO3+                2.163e-04   1.185e-03    -3.665    -2.926     0.739
   CO2                    2.010e-04   1.071e-03    -3.697    -2.970     0.727
   NaHCO3                 1.924e-04   1.025e-03    -3.716    -2.989     0.727
   CaCO3                  1.044e-06   5.565e-06    -5.981    -5.255     0.727
   MgCO3                  4.394e-07   2.341e-06    -6.357    -5.631     0.727
   NaCO3-                 1.501e-07   8.224e-07    -6.824    -6.085     0.739
   CO3-2                  4.171e-08   4.678e-09    -7.380    -8.330    -0.950
Ca               4.654e-01
   Ca+2                   4.608e-01   7.082e-01    -0.337    -0.150     0.187
   CaHCO3+                3.015e-03   1.745e-03    -2.521    -2.758    -0.238
   CaSO4                  1.600e-03   8.525e-03    -2.796    -2.069     0.727
   CaCO3                  1.044e-06   5.565e-06    -5.981    -5.255     0.727
   CaHSO4+                1.764e-08   9.668e-08    -7.753    -7.015     0.739
   CaOH+                  8.693e-09   4.763e-08    -8.061    -7.322     0.739
Cl               6.642e+00
   Cl-                    6.642e+00   3.946e+00     0.822     0.596    -0.226
H(0)             0.000e+00
   H2                     0.000e+00   0.000e+00   -45.192   -44.465     0.727
Mg               1.610e-01
   Mg+2                   1.594e-01   5.246e-01    -0.798    -0.280     0.517
   MgSO4                  1.392e-03   7.419e-03    -2.856    -2.130     0.727
   MgHCO3+                2.163e-04   1.185e-03    -3.665    -2.926     0.739
   MgCO3                  4.394e-07   2.341e-06    -6.357    -5.631     0.727
   MgOH+                  1.409e-07   7.719e-07    -6.851    -6.112     0.739
Na               5.402e+00
   Na+                    5.401e+00   9.442e+00     0.732     0.975     0.243
   NaSO4-                 5.210e-04   2.855e-03    -3.283    -2.544     0.739
   NaHCO3                 1.924e-04   1.025e-03    -3.716    -2.989     0.727
   NaCO3-                 1.501e-07   8.224e-07    -6.824    -6.085     0.739
   NaOH                   4.744e-09   2.528e-08    -8.324    -7.597     0.727
O(0)             8.211e-05
   O2                     4.106e-05   2.188e-04    -4.387    -3.660     0.727
S(-2)            0.000e+00
   H2S                    0.000e+00   0.000e+00  -140.621  -139.894     0.727
   HS-                    0.000e+00   0.000e+00  -140.788  -141.123    -0.335
   S-2                    0.000e+00   0.000e+00  -147.315  -148.327    -1.012
S(6)             4.725e-03
   CaSO4                  1.600e-03   8.525e-03    -2.796    -2.069     0.727
   MgSO4                  1.392e-03   7.419e-03    -2.856    -2.130     0.727
   SO4-2                  1.212e-03   6.033e-05    -2.917    -4.219    -1.303
   NaSO4-                 5.210e-04   2.855e-03    -3.283    -2.544     0.739
   CaHSO4+                1.764e-08   9.668e-08    -7.753    -7.015     0.739
   HSO4-                  2.072e-09   1.136e-08    -8.684    -7.945     0.739

------------------------------Saturation indices-------------------------------

	Phase               SI log IAP  log KT

	Anhydrite        -0.01   -4.37   -4.36  CaSO4
	Aragonite        -0.14   -8.48   -8.34  CaCO3
	Calcite              0   -8.48   -8.48  CaCO3
	CH4(g)         -140.77 -143.63   -2.86  CH4
	CO2(g)           -1.50   -2.97   -1.47  CO2
	Dolomite             0  -17.09  -17.09  CaMg(CO3)2
	Gypsum               0   -4.58   -4.58  CaSO4:2H2O
	H2(g)           -41.32  -44.47   -3.15  H2
	H2O(g)           -1.62   -0.11    1.51  H2O
	H2S(g)         -138.90 -139.89   -1.00  H2S
	Halite           -0.01    1.57    1.58  NaCl
	O2(g)            -0.70   -3.66   -2.96  O2
	Sulfur         -103.46  -98.58    4.88  S

------------------
End of simulation.
------------------

------------------------------------
Reading input data for simulation 5.
------------------------------------

	EXCHANGE 2
	        equilibrate with solution 2
	        X       0.5
	SURFACE 2
		diffuse_layer
	        equilibrate solution 2
	        SurfOH          0.14     600.    30.
	END
-------------------------------------------------------
Beginning of initial exchange-composition calculations.
-------------------------------------------------------

Exchange 2.	

X                5.000e-01 mol

	                               Equiv-    Equivalent      Log 
	Species             Moles      alents      Fraction     Gamma

	NaX               4.507e-01   4.507e-01   9.014e-01     0.243
	CaX2              2.024e-02   4.048e-02   8.096e-02     0.187
	MgX2              4.418e-03   8.836e-03   1.767e-02     0.517

------------------------------------------------------
Beginning of initial surface-composition calculations.
------------------------------------------------------

Surface 2.	

Surf          
	 -2.721e-09  Surface + diffuse layer charge, eq
	  8.247e-02  Surface charge, eq
	  4.421e-01  sigma, C/m**2
	  6.003e-02  psi, V
	 -2.337e+00  -F*psi/RT
	  9.665e-02  exp(-F*psi/RT)
	  6.000e+02  specific area, m**2/g
	  1.800e+04  m**2 for   3.000e+01 g

	Water in diffuse layer: 1.800e-01 kg, 100.0% of total DDL-water.

	Total moles in diffuse layer (excluding water)

	Element       	     Moles
	As            	  1.8929e-09
	C             	  7.0665e-04
	Ca            	  8.1826e-02
	Cl            	  1.2571e+00
	H             	  6.7068e-04
	Mg            	  2.8311e-02
	Na            	  9.5689e-01
	O             	  5.7843e-03
	S             	  9.2143e-04

Surf          
	  1.400e-01  moles
	                                   Mole                     Log
	Species               Moles    Fraction    Molality    Molality

	SurfOH2+          1.030e-01       0.736   1.030e-01      -0.987
	SurfOH            2.823e-02       0.202   2.823e-02      -1.549
	SurfOHAsO4-3      6.024e-03       0.043   6.024e-03      -2.220
	SurfHAsO4-        2.288e-03       0.016   2.288e-03      -2.641
	SurfH2AsO4        2.701e-04       0.002   2.701e-04      -3.569
	SurfO-            1.773e-04       0.001   1.773e-04      -3.751

------------------
End of simulation.
------------------

------------------------------------
Reading input data for simulation 6.
------------------------------------

	SELECTED_OUTPUT
	        file ex4.dummy.sel
	        reset false
	        ph
	USER_PUNCH
	heading        Ca      Mg      Na      Cl      C(4)    SO4     As
	10 PUNCH TOT("Ca")*1e3*40.08
	20 PUNCH TOT("Mg")*1e3*24.312
	30 PUNCH TOT("Na")*1e3*23.
	40 PUNCH TOT("Cl")*1e3*35.45
	50 PUNCH TOT("C(4)")*1e3*61.   # as HCO3-
	60 PUNCH TOT("S(6)")*1e3*96.   # as SO4
	70 PUNCH TOT("As")*1e6*74.296  # ug/L
	END
------------------
End of simulation.
------------------

------------------------------------
Reading input data for simulation 7.
------------------------------------

List of Components:
	1	H
	2	O
	3	As
	4	C
	5	Ca
	6	Cl
	7	Mg
	8	Na
	9	S
	10	Charge
List of master species:
	1	As
	2	C(-4)
	3	C(4)
	4	Ca
	5	Cl
	6	Mg
	7	Na
	8	S(-2)
	9	S(6)
Time 10000. Cell 1: x=              0	y=              0	z=              0
Using solution 1.
Using exchange 1
Using surface 1.
Using pure phase assemblage 1.

-------------------------------Phase assemblage--------------------------------

                                                      Moles in assemblage
Phase                  SI log IAP  log KT      Initial       Final       Delta

Calcite                 0   -8.48   -8.48    1.003e-01   1.006e-01   2.321e-04
Dolomite                0  -17.09  -17.09    1.600e+00   1.600e+00  -1.072e-04

------------------------------Surface composition------------------------------

Surf          
	  3.504e-16  Surface + diffuse layer charge, eq
	  8.252e-02  Surface charge, eq
	  4.424e-01  sigma, C/m**2
	  6.037e-02  psi, V
	 -2.350e+00  -F*psi/RT
	  9.539e-02  exp(-F*psi/RT)
	  6.000e+02  specific area, m**2/g
	  1.800e+04  m**2 for   3.000e+01 g

	Water in diffuse layer: 1.800e-01 kg, 100.0% of total DDL-water.

	Total moles in diffuse layer (excluding water)

	Element       	     Moles
	As            	  1.9487e-09
	C             	  7.2725e-04
	Ca            	  8.0366e-02
	Cl            	  1.2398e+00
	H             	  6.8723e-04
	Mg            	  2.8052e-02
	Na            	  9.4300e-01
	O             	  5.7999e-03
	S             	  9.1066e-04

Surf          
	  1.400e-01  moles
	                                   Mole                     Log
	Species               Moles    Fraction    Molality    Molality

	SurfOH2+          1.031e-01       0.736   1.031e-01      -0.987
	SurfOH            2.819e-02       0.201   2.819e-02      -1.550
	SurfOHAsO4-3      6.023e-03       0.043   6.023e-03      -2.220
	SurfHAsO4-        2.288e-03       0.016   2.288e-03      -2.641
	SurfH2AsO4        2.706e-04       0.002   2.706e-04      -3.568
	SurfO-            1.767e-04       0.001   1.767e-04      -3.753

-----------------------------Exchange composition------------------------------

X                5.000e-01 mol

	                               Equiv-    Equivalent      Log 
	Species             Moles      alents      Fraction     Gamma

	NaX               4.502e-01   4.502e-01   9.003e-01     0.235
	CaX2              2.042e-02   4.083e-02   8.167e-02     0.170
	MgX2              4.497e-03   8.994e-03   1.799e-02     0.497

-----------------------------Solution composition------------------------------

	Elements           Molality       Moles

	As                1.029e-08   1.029e-08
	C                 4.074e-03   4.074e-03
	Ca                4.572e-01   4.572e-01
	Cl                6.545e+00   6.545e+00
	Mg                1.596e-01   1.596e-01
	Na                5.324e+00   5.324e+00
	S                 4.657e-03   4.657e-03

----------------------------Description of solution----------------------------

                                       pH  =   5.707      Charge balance
                                       pe  =  14.954      Adjusted to redox equilibrium
                        Activity of water  =   0.788
                           Ionic strength  =   7.160e+00
                       Mass of water (kg)  =   1.000e+00
                 Total alkalinity (eq/kg)  =   3.850e-03
                       Total CO2 (mol/kg)  =   4.074e-03
                      Temperature (deg C)  =  25.000
                  Electrical balance (eq)  =  -2.662e-09
 Percent error, 100*(Cat-|An|)/(Cat+|An|)  =      0
                               Iterations  =   1
                                  Total H  = 1.110163e+02
                                  Total O  = 5.553693e+01

----------------------------Distribution of species----------------------------

                                                   Log       Log         Log 
   Species                 Molality    Activity  Molality  Activity     Gamma

   H+                     2.796e-06   1.965e-06    -5.554    -5.707    -0.153
   OH-                    8.666e-09   4.012e-09    -8.062    -8.397    -0.334
   H2O                    5.551e+01   7.877e-01     1.744    -0.104         0
As               1.029e-08
   H2AsO4-                1.028e-08   5.434e-08    -7.988    -7.265     0.723
   HAsO4-2                3.880e-12   3.032e-09   -11.411    -8.518     2.893
   H3AsO4                 3.570e-12   1.856e-11   -11.447   -10.731     0.716
   AsO4-3                 1.511e-21   4.878e-15   -20.821   -14.312     6.509
C(-4)            0.000e+00
   CH4                    0.000e+00   0.000e+00  -144.339  -143.623     0.716
C(4)             4.074e-03
   CaHCO3+                3.059e-03   1.771e-03    -2.514    -2.752    -0.237
   HCO3-                  3.578e-04   2.072e-04    -3.446    -3.684    -0.237
   MgHCO3+                2.276e-04   1.203e-03    -3.643    -2.920     0.723
   CO2                    2.235e-04   1.162e-03    -3.651    -2.935     0.716
   NaHCO3                 2.049e-04   1.066e-03    -3.688    -2.972     0.716
   CaCO3                  1.070e-06   5.565e-06    -5.971    -5.255     0.716
   MgCO3                  4.503e-07   2.341e-06    -6.346    -5.631     0.716
   NaCO3-                 1.593e-07   8.420e-07    -6.798    -6.075     0.723
   CO3-2                  4.396e-08   4.943e-09    -7.357    -8.306    -0.949
Ca               4.572e-01
   Ca+2                   4.526e-01   6.701e-01    -0.344    -0.174     0.170
   CaHCO3+                3.059e-03   1.771e-03    -2.514    -2.752    -0.237
   CaSO4                  1.563e-03   8.129e-03    -2.806    -2.090     0.716
   CaCO3                  1.070e-06   5.565e-06    -5.971    -5.255     0.716
   CaHSO4+                1.770e-08   9.360e-08    -7.752    -7.029     0.723
   CaOH+                  8.430e-09   4.457e-08    -8.074    -7.351     0.723
Cl               6.545e+00
   Cl-                    6.545e+00   3.880e+00     0.816     0.589    -0.227
H(0)             0.000e+00
   H2                     0.000e+00   0.000e+00   -45.188   -44.472     0.716
Mg               1.596e-01
   Mg+2                   1.580e-01   4.964e-01    -0.801    -0.304     0.497
   MgSO4                  1.361e-03   7.075e-03    -2.866    -2.150     0.716
   MgHCO3+                2.276e-04   1.203e-03    -3.643    -2.920     0.723
   MgCO3                  4.503e-07   2.341e-06    -6.346    -5.631     0.716
   MgOH+                  1.366e-07   7.223e-07    -6.864    -6.141     0.723
Na               5.324e+00
   Na+                    5.324e+00   9.147e+00     0.726     0.961     0.235
   NaSO4-                 5.272e-04   2.787e-03    -3.278    -2.555     0.723
   NaHCO3                 2.049e-04   1.066e-03    -3.688    -2.972     0.716
   NaCO3-                 1.593e-07   8.420e-07    -6.798    -6.075     0.723
   NaOH                   4.658e-09   2.422e-08    -8.332    -7.616     0.716
O(0)             8.728e-05
   O2                     4.364e-05   2.269e-04    -4.360    -3.644     0.716
S(-2)            0.000e+00
   H2S                    0.000e+00   0.000e+00  -140.625  -139.909     0.716
   HS-                    0.000e+00   0.000e+00  -140.810  -141.144    -0.334
   S-2                    0.000e+00   0.000e+00  -147.345  -148.356    -1.011
S(6)             4.657e-03
   CaSO4                  1.563e-03   8.129e-03    -2.806    -2.090     0.716
   MgSO4                  1.361e-03   7.075e-03    -2.866    -2.150     0.716
   SO4-2                  1.206e-03   6.080e-05    -2.919    -4.216    -1.297
   NaSO4-                 5.272e-04   2.787e-03    -3.278    -2.555     0.723
   CaHSO4+                1.770e-08   9.360e-08    -7.752    -7.029     0.723
   HSO4-                  2.197e-09   1.162e-08    -8.658    -7.935     0.723

------------------------------Saturation indices-------------------------------

	Phase               SI log IAP  log KT

	Anhydrite        -0.03   -4.39   -4.36  CaSO4
	Aragonite        -0.14   -8.48   -8.34  CaCO3
	Calcite              0   -8.48   -8.48  CaCO3
	CH4(g)         -140.76 -143.62   -2.86  CH4
	CO2(g)           -1.47   -2.93   -1.47  CO2
	Dolomite             0  -17.09  -17.09  CaMg(CO3)2
	Gypsum           -0.02   -4.60   -4.58  CaSO4:2H2O
	H2(g)           -41.32  -44.47   -3.15  H2
	H2O(g)           -1.61   -0.10    1.51  H2O
	H2S(g)         -138.91 -139.91   -1.00  H2S
	Halite           -0.03    1.55    1.58  NaCl
	O2(g)            -0.68   -3.64   -2.96  O2
	Sulfur         -103.47  -98.59    4.88  S

Time 10000. Cell 4: x=          18000	y=              0	z=              0
Using solution 4.
Using exchange 4
Using surface 4.
Using pure phase assemblage 4.

-------------------------------Phase assemblage--------------------------------

                                                      Moles in assemblage
Phase                  SI log IAP  log KT      Initial       Final       Delta

Calcite                 0   -8.48   -8.48    1.309e-01   1.369e-01   6.068e-03
Dolomite                0  -17.09  -17.09    1.584e+00   1.580e+00  -3.960e-03

------------------------------Surface composition------------------------------

Surf          
	 -2.047e-16  Surface + diffuse layer charge, eq
	  7.730e-02  Surface charge, eq
	  4.144e-01  sigma, C/m**2
	  7.034e-02  psi, V
	 -2.738e+00  -F*psi/RT
	  6.471e-02  exp(-F*psi/RT)
	  6.000e+02  specific area, m**2/g
	  1.800e+04  m**2 for   3.000e+01 g

	Water in diffuse layer: 1.800e-01 kg, 100.0% of total DDL-water.

	Total moles in diffuse layer (excluding water)

	Element       	     Moles
	As            	  2.8683e-09
	C             	  2.1947e-03
	Ca            	  3.9991e-02
	Cl            	  7.1679e-01
	H             	  1.4984e-03
	Mg            	  1.8280e-02
	Na            	  5.2565e-01
	O             	  8.3395e-03
	S             	  6.0198e-04

Surf          
	  1.400e-01  moles
	                                   Mole                     Log
	Species               Moles    Fraction    Molality    Molality

	SurfOH2+          9.941e-02       0.710   9.941e-02      -1.003
	SurfOH            3.177e-02       0.227   3.177e-02      -1.498
	SurfOHAsO4-3      6.737e-03       0.048   6.736e-03      -2.172
	SurfHAsO4-        1.675e-03       0.012   1.675e-03      -2.776
	SurfO-            2.326e-04       0.002   2.326e-04      -3.633
	SurfH2AsO4        1.696e-04       0.001   1.696e-04      -3.771

-----------------------------Exchange composition------------------------------

X                5.000e-01 mol

	                               Equiv-    Equivalent      Log 
	Species             Moles      alents      Fraction     Gamma

	NaX               4.256e-01   4.256e-01   8.511e-01     0.018
	CaX2              2.885e-02   5.770e-02   1.154e-01    -0.294
	MgX2              8.371e-03   1.674e-02   3.349e-02    -0.087

-----------------------------Solution composition------------------------------

	Elements           Molality       Moles

	As                1.453e-08   1.453e-08
	C                 1.206e-02   1.206e-02
	Ca                2.298e-01   2.298e-01
	Cl                3.646e+00   3.646e+00
	Mg                1.050e-01   1.050e-01
	Na                2.990e+00   2.990e+00
	S                 2.649e-03   2.649e-03

----------------------------Description of solution----------------------------

                                       pH  =   5.606      Charge balance
                                       pe  =  15.062      Adjusted to redox equilibrium
                        Activity of water  =   0.881
                           Ionic strength  =   3.981e+00
                       Mass of water (kg)  =   1.000e+00
                 Total alkalinity (eq/kg)  =   8.196e-03
                       Total CO2 (mol/kg)  =   1.206e-02
                      Temperature (deg C)  =  25.000
                  Electrical balance (eq)  =  -1.240e-09
 Percent error, 100*(Cat-|An|)/(Cat+|An|)  =      0
                               Iterations  =   1
                                  Total H  = 1.110266e+02
                                  Total O  = 5.555234e+01

----------------------------Distribution of species----------------------------

                                                   Log       Log         Log 
   Species                 Molality    Activity  Molality  Activity     Gamma

   H+                     3.482e-06   2.480e-06    -5.458    -5.606    -0.147
   OH-                    7.241e-09   3.558e-09    -8.140    -8.449    -0.309
   H2O                    5.551e+01   8.814e-01     1.744    -0.055         0
As               1.453e-08
   H2AsO4-                1.443e-08   2.680e-08    -7.841    -7.572     0.269
   HAsO4-2                9.951e-11   1.185e-09   -10.002    -8.926     1.076
   H3AsO4                 4.619e-12   1.155e-11   -11.335   -10.937     0.398
   AsO4-3                 5.735e-18   1.511e-15   -17.241   -14.821     2.421
C(-4)            0.000e+00
   CH4                    0.000e+00   0.000e+00  -143.256  -142.858     0.398
C(4)             1.206e-02
   CO2                    3.867e-03   9.671e-03    -2.413    -2.015     0.398
   CaHCO3+                3.743e-03   2.235e-03    -2.427    -2.651    -0.224
   HCO3-                  2.560e-03   1.529e-03    -2.592    -2.816    -0.224
   NaHCO3                 1.070e-03   2.677e-03    -2.970    -2.572     0.398
   MgHCO3+                8.172e-04   1.518e-03    -3.088    -2.819     0.269
   CaCO3                  2.225e-06   5.565e-06    -5.653    -5.255     0.398
   MgCO3                  9.363e-07   2.341e-06    -6.029    -5.631     0.398
   NaCO3-                 9.023e-07   1.676e-06    -6.045    -5.776     0.269
   CO3-2                  2.275e-07   2.891e-08    -6.643    -7.539    -0.896
Ca               2.298e-01
   Ca+2                   2.254e-01   1.146e-01    -0.647    -0.941    -0.294
   CaHCO3+                3.743e-03   2.235e-03    -2.427    -2.651    -0.224
   CaSO4                  6.310e-04   1.578e-03    -3.200    -2.802     0.398
   CaCO3                  2.225e-06   5.565e-06    -5.653    -5.255     0.398
   CaHSO4+                1.234e-08   2.293e-08    -7.909    -7.640     0.269
   CaOH+                  3.638e-09   6.758e-09    -8.439    -8.170     0.269
Cl               3.646e+00
   Cl-                    3.646e+00   2.055e+00     0.562     0.313    -0.249
H(0)             0.000e+00
   H2                     0.000e+00   0.000e+00   -44.884   -44.486     0.398
Mg               1.050e-01
   Mg+2                   1.037e-01   8.487e-02    -0.984    -1.071    -0.087
   MgHCO3+                8.172e-04   1.518e-03    -3.088    -2.819     0.269
   MgSO4                  5.492e-04   1.373e-03    -3.260    -2.862     0.398
   MgCO3                  9.363e-07   2.341e-06    -6.029    -5.631     0.398
   MgOH+                  5.895e-08   1.095e-07    -7.229    -6.961     0.269
Na               2.990e+00
   Na+                    2.988e+00   3.114e+00     0.475     0.493     0.018
   NaHCO3                 1.070e-03   2.677e-03    -2.970    -2.572     0.398
   NaSO4-                 5.799e-04   1.077e-03    -3.237    -2.968     0.269
   NaCO3-                 9.023e-07   1.676e-06    -6.045    -5.776     0.269
   NaOH                   2.924e-09   7.311e-09    -8.534    -8.136     0.398
O(0)             2.427e-04
   O2                     1.213e-04   3.034e-04    -3.916    -3.518     0.398
S(-2)            0.000e+00
   H2S                    0.000e+00   0.000e+00  -140.303  -139.905     0.398
   HS-                    0.000e+00   0.000e+00  -140.932  -141.241    -0.309
   S-2                    0.000e+00   0.000e+00  -147.602  -148.553    -0.951
S(6)             2.649e-03
   SO4-2                  8.893e-04   6.903e-05    -3.051    -4.161    -1.110
   CaSO4                  6.310e-04   1.578e-03    -3.200    -2.802     0.398
   NaSO4-                 5.799e-04   1.077e-03    -3.237    -2.968     0.269
   MgSO4                  5.492e-04   1.373e-03    -3.260    -2.862     0.398
   CaHSO4+                1.234e-08   2.293e-08    -7.909    -7.640     0.269
   HSO4-                  8.959e-09   1.664e-08    -8.048    -7.779     0.269

------------------------------Saturation indices-------------------------------

	Phase               SI log IAP  log KT

	Anhydrite        -0.74   -5.10   -4.36  CaSO4
	Aragonite        -0.14   -8.48   -8.34  CaCO3
	Calcite              0   -8.48   -8.48  CaCO3
	CH4(g)         -140.00 -142.86   -2.86  CH4
	CO2(g)           -0.55   -2.01   -1.47  CO2
	Dolomite             0  -17.09  -17.09  CaMg(CO3)2
	Gypsum           -0.63   -5.21   -4.58  CaSO4:2H2O
	H2(g)           -41.34  -44.49   -3.15  H2
	H2O(g)           -1.56   -0.05    1.51  H2O
	H2S(g)         -138.91 -139.90   -1.00  H2S
	Halite           -0.78    0.81    1.58  NaCl
	O2(g)            -0.56   -3.52   -2.96  O2
	Sulfur         -103.45  -98.57    4.88  S

Time 10000. Cell 7: x=          36000	y=              0	z=              0
Using solution 7.
Using exchange 7
Using surface 7.
Using pure phase assemblage 7.

-------------------------------Phase assemblage--------------------------------

                                                      Moles in assemblage
Phase                  SI log IAP  log KT      Initial       Final       Delta

Calcite                 0   -8.48   -8.48    1.575e-01   1.558e-01  -1.716e-03
Dolomite                0  -17.09  -17.09    1.558e+00   1.555e+00  -3.029e-03

------------------------------Surface composition------------------------------

Surf          
	  4.788e-16  Surface + diffuse layer charge, eq
	  2.947e-02  Surface charge, eq
	  1.580e-01  sigma, C/m**2
	  6.959e-02  psi, V
	 -2.709e+00  -F*psi/RT
	  6.663e-02  exp(-F*psi/RT)
	  6.000e+02  specific area, m**2/g
	  1.800e+04  m**2 for   3.000e+01 g

	Water in diffuse layer: 1.800e-01 kg, 100.0% of total DDL-water.

	Total moles in diffuse layer (excluding water)

	Element       	     Moles
	As            	  5.8663e-10
	C             	  4.6611e-03
	Ca            	  3.7319e-03
	Cl            	  1.1868e-01
	H             	  2.9632e-03
	Mg            	  2.4250e-03
	Na            	  8.0309e-02
	O             	  1.3237e-02
	S             	  2.1865e-04

Surf          
	  1.400e-01  moles
	                                   Mole                     Log
	Species               Moles    Fraction    Molality    Molality

	SurfOH            7.226e-02       0.516   7.225e-02      -1.141
	SurfOH2+          5.706e-02       0.408   5.705e-02      -1.244
	SurfOHAsO4-3      8.458e-03       0.060   8.457e-03      -2.073
	SurfO-            2.097e-03       0.015   2.096e-03      -2.679
	SurfHAsO4-        1.202e-04       0.001   1.202e-04      -3.920
	SurfH2AsO4        3.072e-06           0   3.072e-06      -5.513

-----------------------------Exchange composition------------------------------

X                5.000e-01 mol

	                               Equiv-    Equivalent      Log 
	Species             Moles      alents      Fraction     Gamma

	NaX               3.212e-01   3.212e-01   6.424e-01    -0.150
	CaX2              6.339e-02   1.268e-01   2.536e-01    -0.594
	MgX2              2.600e-02   5.200e-02   1.040e-01    -0.537

-----------------------------Solution composition------------------------------

	Elements           Molality       Moles

	As                1.900e-09   1.901e-09
	C                 2.332e-02   2.332e-02
	Ca                2.267e-02   2.267e-02
	Cl                5.343e-01   5.343e-01
	Mg                1.473e-02   1.473e-02
	Na                4.746e-01   4.746e-01
	S                 5.903e-04   5.904e-04

----------------------------Description of solution----------------------------

                                       pH  =   6.216      Charge balance
                                       pe  =  14.400      Adjusted to redox equilibrium
                        Activity of water  =   0.982
                           Ionic strength  =   5.827e-01
                       Mass of water (kg)  =   1.000e+00
                 Total alkalinity (eq/kg)  =   1.392e-02
                       Total CO2 (mol/kg)  =   2.332e-02
                      Temperature (deg C)  =  25.000
                  Electrical balance (eq)  =  -1.023e-10
 Percent error, 100*(Cat-|An|)/(Cat+|An|)  =      0
                               Iterations  =   1
                                  Total H  = 1.110424e+02
                                  Total O  = 5.557756e+01

----------------------------Distribution of species----------------------------

                                                   Log       Log         Log 
   Species                 Molality    Activity  Molality  Activity     Gamma

   H+                     8.002e-07   6.078e-07    -6.097    -6.216    -0.119
   OH-                    2.605e-08   1.617e-08    -7.584    -7.791    -0.207
   H2O                    5.551e+01   9.819e-01     1.744    -0.008         0
As               1.900e-09
   H2AsO4-                1.313e-09   9.701e-10    -8.882    -9.013    -0.131
   HAsO4-2                5.872e-10   1.750e-10    -9.231    -9.757    -0.526
   H3AsO4                 8.960e-14   1.025e-13   -13.048   -12.989     0.058
   AsO4-3                 1.388e-14   9.105e-16   -13.858   -15.041    -1.183
C(-4)            0.000e+00
   CH4                    0.000e+00   0.000e+00  -142.552  -142.493     0.058
C(4)             2.332e-02
   HCO3-                  1.131e-02   7.734e-03    -1.946    -2.112    -0.165
   CO2                    9.413e-03   1.076e-02    -2.026    -1.968     0.058
   NaHCO3                 1.273e-03   1.455e-03    -2.895    -2.837     0.058
   CaHCO3+                8.013e-04   5.478e-04    -3.096    -3.261    -0.165
   MgHCO3+                5.036e-04   3.721e-04    -3.298    -3.429    -0.131
   NaCO3-                 5.033e-06   3.718e-06    -5.298    -5.430    -0.131
   CaCO3                  4.866e-06   5.565e-06    -5.313    -5.255     0.058
   CO3-2                  2.733e-06   5.967e-07    -5.563    -6.224    -0.661
   MgCO3                  2.047e-06   2.341e-06    -5.689    -5.631     0.058
Ca               2.267e-02
   Ca+2                   2.180e-02   5.551e-03    -1.662    -2.256    -0.594
   CaHCO3+                8.013e-04   5.478e-04    -3.096    -3.261    -0.165
   CaSO4                  6.180e-05   7.067e-05    -4.209    -4.151     0.058
   CaCO3                  4.866e-06   5.565e-06    -5.313    -5.255     0.058
   CaOH+                  2.014e-09   1.488e-09    -8.696    -8.827    -0.131
   CaHSO4+                3.406e-10   2.516e-10    -9.468    -9.599    -0.131
Cl               5.343e-01
   Cl-                    5.343e-01   3.384e-01    -0.272    -0.471    -0.198
H(0)             0.000e+00
   H2                     0.000e+00   0.000e+00   -44.441   -44.383     0.058
Mg               1.473e-02
   Mg+2                   1.417e-02   4.112e-03    -1.849    -2.386    -0.537
   MgHCO3+                5.036e-04   3.721e-04    -3.298    -3.429    -0.131
   MgSO4                  5.378e-05   6.150e-05    -4.269    -4.211     0.058
   MgCO3                  2.047e-06   2.341e-06    -5.689    -5.631     0.058
   MgOH+                  3.264e-08   2.412e-08    -7.486    -7.618    -0.131
Na               4.746e-01
   Na+                    4.732e-01   3.346e-01    -0.325    -0.475    -0.150
   NaHCO3                 1.273e-03   1.455e-03    -2.895    -2.837     0.058
   NaSO4-                 1.448e-04   1.070e-04    -3.839    -3.971    -0.131
   NaCO3-                 5.033e-06   3.718e-06    -5.298    -5.430    -0.131
   NaOH                   3.123e-09   3.571e-09    -8.505    -8.447     0.058
O(0)             4.099e-04
   O2                     2.049e-04   2.344e-04    -3.688    -3.630     0.058
S(-2)            0.000e+00
   H2S                    0.000e+00   0.000e+00  -140.994  -140.936     0.058
   HS-                    0.000e+00   0.000e+00  -141.454  -141.661    -0.207
   S-2                    0.000e+00   0.000e+00  -147.673  -148.363    -0.690
S(6)             5.903e-04
   SO4-2                  3.299e-04   6.380e-05    -3.482    -4.195    -0.714
   NaSO4-                 1.448e-04   1.070e-04    -3.839    -3.971    -0.131
   CaSO4                  6.180e-05   7.067e-05    -4.209    -4.151     0.058
   MgSO4                  5.378e-05   6.150e-05    -4.269    -4.211     0.058
   HSO4-                  5.103e-09   3.770e-09    -8.292    -8.424    -0.131
   CaHSO4+                3.406e-10   2.516e-10    -9.468    -9.599    -0.131

------------------------------Saturation indices-------------------------------

	Phase               SI log IAP  log KT

	Anhydrite        -2.09   -6.45   -4.36  CaSO4
	Aragonite        -0.14   -8.48   -8.34  CaCO3
	Calcite              0   -8.48   -8.48  CaCO3
	CH4(g)         -139.63 -142.49   -2.86  CH4
	CO2(g)           -0.50   -1.97   -1.47  CO2
	Dolomite             0  -17.09  -17.09  CaMg(CO3)2
	Gypsum           -1.89   -6.47   -4.58  CaSO4:2H2O
	H2(g)           -41.23  -44.38   -3.15  H2
	H2O(g)           -1.52   -0.01    1.51  H2O
	H2S(g)         -139.94 -140.94   -1.00  H2S
	Halite           -2.53   -0.95    1.58  NaCl
	O2(g)            -0.67   -3.63   -2.96  O2
	Sulfur         -104.58  -99.70    4.88  S

Time 10000. Cell 49: x=              0	y=          18000	z=              0
Using solution 49.
Using exchange 49
Using surface 49.
Using pure phase assemblage 49.

-------------------------------Phase assemblage--------------------------------

                                                      Moles in assemblage
Phase                  SI log IAP  log KT      Initial       Final       Delta

Calcite                 0   -8.48   -8.48    1.006e-01   1.011e-01   4.426e-04
Dolomite                0  -17.09  -17.09    1.600e+00   1.599e+00  -2.038e-04

------------------------------Surface composition------------------------------

Surf          
	 -4.510e-16  Surface + diffuse layer charge, eq
	  8.257e-02  Surface charge, eq
	  4.426e-01  sigma, C/m**2
	  6.059e-02  psi, V
	 -2.358e+00  -F*psi/RT
	  9.457e-02  exp(-F*psi/RT)
	  6.000e+02  specific area, m**2/g
	  1.800e+04  m**2 for   3.000e+01 g

	Water in diffuse layer: 1.800e-01 kg, 100.0% of total DDL-water.

	Total moles in diffuse layer (excluding water)

	Element       	     Moles
	As            	  1.9858e-09
	C             	  7.4148e-04
	Ca            	  7.9469e-02
	Cl            	  1.2292e+00
	H             	  6.9864e-04
	Mg            	  2.7890e-02
	Na            	  9.3445e-01
	O             	  5.8141e-03
	S             	  9.0410e-04

Surf          
	  1.400e-01  moles
	                                   Mole                     Log
	Species               Moles    Fraction    Molality    Molality

	SurfOH2+          1.031e-01       0.736   1.031e-01      -0.987
	SurfOH            2.815e-02       0.201   2.815e-02      -1.551
	SurfOHAsO4-3      6.020e-03       0.043   6.020e-03      -2.220
	SurfHAsO4-        2.290e-03       0.016   2.290e-03      -2.640
	SurfH2AsO4        2.714e-04       0.002   2.714e-04      -3.566
	SurfO-            1.760e-04       0.001   1.760e-04      -3.754

-----------------------------Exchange composition------------------------------

X                5.000e-01 mol

	                               Equiv-    Equivalent      Log 
	Species             Moles      alents      Fraction     Gamma

	NaX               4.499e-01   4.499e-01   8.997e-01     0.230
	CaX2              2.053e-02   4.106e-02   8.211e-02     0.161
	MgX2              4.547e-03   9.093e-03   1.819e-02     0.485

-----------------------------Solution composition------------------------------

	Elements           Molality       Moles

	As                1.048e-08   1.048e-08
	C                 4.153e-03   4.153e-03
	Ca                4.522e-01   4.522e-01
	Cl                6.485e+00   6.485e+00
	Mg                1.587e-01   1.587e-01
	Na                5.277e+00   5.277e+00
	S                 4.615e-03   4.615e-03

----------------------------Description of solution----------------------------

                                       pH  =   5.702      Charge balance
                                       pe  =  14.961      Adjusted to redox equilibrium
                        Activity of water  =   0.790
                           Ionic strength  =   7.094e+00
                       Mass of water (kg)  =   1.000e+00
                 Total alkalinity (eq/kg)  =   3.913e-03
                       Total CO2 (mol/kg)  =   4.153e-03
                      Temperature (deg C)  =  25.000
                  Electrical balance (eq)  =  -2.627e-09
 Percent error, 100*(Cat-|An|)/(Cat+|An|)  =      0
                               Iterations  =   1
                                  Total H  = 1.110164e+02
                                  Total O  = 5.553699e+01

----------------------------Distribution of species----------------------------

                                                   Log       Log         Log 
   Species                 Molality    Activity  Molality  Activity     Gamma

   H+                     2.825e-06   1.986e-06    -5.549    -5.702    -0.153
   OH-                    8.588e-09   3.980e-09    -8.066    -8.400    -0.334
   H2O                    5.551e+01   7.896e-01     1.744    -0.103         0
As               1.048e-08
   H2AsO4-                1.047e-08   5.414e-08    -7.980    -7.266     0.714
   HAsO4-2                4.176e-12   2.989e-09   -11.379    -8.525     2.855
   H3AsO4                 3.649e-12   1.869e-11   -11.438   -10.728     0.709
   AsO4-3                 1.796e-21   4.758e-15   -20.746   -14.323     6.423
C(-4)            0.000e+00
   CH4                    0.000e+00   0.000e+00  -144.326  -143.616     0.709
C(4)             4.153e-03
   CaHCO3+                3.090e-03   1.790e-03    -2.510    -2.747    -0.237
   HCO3-                  3.739e-04   2.166e-04    -3.427    -3.664    -0.237
   CO2                    2.392e-04   1.225e-03    -3.621    -2.912     0.709
   MgHCO3+                2.351e-04   1.216e-03    -3.629    -2.915     0.714
   NaHCO3                 2.133e-04   1.093e-03    -3.671    -2.961     0.709
   CaCO3                  1.086e-06   5.565e-06    -5.964    -5.255     0.709
   MgCO3                  4.571e-07   2.341e-06    -6.340    -5.631     0.709
   NaCO3-                 1.652e-07   8.543e-07    -6.782    -6.068     0.714
   CO3-2                  4.541e-08   5.115e-09    -7.343    -8.291    -0.948
Ca               4.522e-01
   Ca+2                   4.475e-01   6.477e-01    -0.349    -0.189     0.161
   CaHCO3+                3.090e-03   1.790e-03    -2.510    -2.747    -0.237
   CaSO4                  1.541e-03   7.894e-03    -2.812    -2.103     0.709
   CaCO3                  1.086e-06   5.565e-06    -5.964    -5.255     0.709
   CaHSO4+                1.776e-08   9.186e-08    -7.751    -7.037     0.714
   CaOH+                  8.261e-09   4.273e-08    -8.083    -7.369     0.714
Cl               6.485e+00
   Cl-                    6.485e+00   3.839e+00     0.812     0.584    -0.228
H(0)             0.000e+00
   H2                     0.000e+00   0.000e+00   -45.184   -44.475     0.709
Mg               1.587e-01
   Mg+2                   1.571e-01   4.798e-01    -0.804    -0.319     0.485
   MgSO4                  1.341e-03   6.870e-03    -2.873    -2.163     0.709
   MgHCO3+                2.351e-04   1.216e-03    -3.629    -2.915     0.714
   MgCO3                  4.571e-07   2.341e-06    -6.340    -5.631     0.709
   MgOH+                  1.339e-07   6.924e-07    -6.873    -6.160     0.714
Na               5.277e+00
   Na+                    5.276e+00   8.970e+00     0.722     0.953     0.230
   NaSO4-                 5.309e-04   2.746e-03    -3.275    -2.561     0.714
   NaHCO3                 2.133e-04   1.093e-03    -3.671    -2.961     0.709
   NaCO3-                 1.652e-07   8.543e-07    -6.782    -6.068     0.714
   NaOH                   4.600e-09   2.356e-08    -8.337    -7.628     0.709
O(0)             9.047e-05
   O2                     4.523e-05   2.317e-04    -4.345    -3.635     0.709
S(-2)            0.000e+00
   H2S                    0.000e+00   0.000e+00  -140.626  -139.916     0.709
   HS-                    0.000e+00   0.000e+00  -140.822  -141.156    -0.334
   S-2                    0.000e+00   0.000e+00  -147.362  -148.372    -1.010
S(6)             4.615e-03
   CaSO4                  1.541e-03   7.894e-03    -2.812    -2.103     0.709
   MgSO4                  1.341e-03   6.870e-03    -2.873    -2.163     0.709
   SO4-2                  1.202e-03   6.108e-05    -2.920    -4.214    -1.294
   NaSO4-                 5.309e-04   2.746e-03    -3.275    -2.561     0.714
   CaHSO4+                1.776e-08   9.186e-08    -7.751    -7.037     0.714
   HSO4-                  2.281e-09   1.180e-08    -8.642    -7.928     0.714

------------------------------Saturation indices-------------------------------

	Phase               SI log IAP  log KT

	Anhydrite        -0.04   -4.40   -4.36  CaSO4
	Aragonite        -0.14   -8.48   -8.34  CaCO3
	Calcite              0   -8.48   -8.48  CaCO3
	CH4(g)         -140.76 -143.62   -2.86  CH4
	CO2(g)           -1.44   -2.91   -1.47  CO2
	Dolomite             0  -17.09  -17.09  CaMg(CO3)2
	Gypsum           -0.03   -4.61   -4.58  CaSO4:2H2O
	H2(g)           -41.33  -44.48   -3.15  H2
	H2O(g)           -1.61   -0.10    1.51  H2O
	H2S(g)         -138.92 -139.92   -1.00  H2S
	Halite           -0.04    1.54    1.58  NaCl
	O2(g)            -0.68   -3.64   -2.96  O2
	Sulfur         -103.47  -98.59    4.88  S

Time 10000. Cell 52: x=          18000	y=          18000	z=              0
Using solution 52.
Using exchange 52
Using surface 52.
Using pure phase assemblage 52.

-------------------------------Phase assemblage--------------------------------

                                                      Moles in assemblage
Phase                  SI log IAP  log KT      Initial       Final       Delta

Calcite                 0   -8.48   -8.48    1.331e-01   1.403e-01   7.114e-03
Dolomite                0  -17.09  -17.09    1.582e+00   1.578e+00  -4.480e-03

------------------------------Surface composition------------------------------

Surf          
	 -1.110e-16  Surface + diffuse layer charge, eq
	  7.742e-02  Surface charge, eq
	  4.150e-01  sigma, C/m**2
	  7.053e-02  psi, V
	 -2.745e+00  -F*psi/RT
	  6.422e-02  exp(-F*psi/RT)
	  6.000e+02  specific area, m**2/g
	  1.800e+04  m**2 for   3.000e+01 g

	Water in diffuse layer: 1.800e-01 kg, 100.0% of total DDL-water.

	Total moles in diffuse layer (excluding water)

	Element       	     Moles
	As            	  2.8961e-09
	C             	  2.2532e-03
	Ca            	  3.9694e-02
	Cl            	  7.1325e-01
	H             	  1.5267e-03
	Mg            	  1.8179e-02
	Na            	  5.2282e-01
	O             	  8.4805e-03
	S             	  6.0079e-04

Surf          
	  1.400e-01  moles
	                                   Mole                     Log
	Species               Moles    Fraction    Molality    Molality

	SurfOH2+          9.951e-02       0.711   9.950e-02      -1.002
	SurfOH            3.168e-02       0.226   3.168e-02      -1.499
	SurfOHAsO4-3      6.726e-03       0.048   6.725e-03      -2.172
	SurfHAsO4-        1.685e-03       0.012   1.685e-03      -2.774
	SurfO-            2.310e-04       0.002   2.310e-04      -3.636
	SurfH2AsO4        1.712e-04       0.001   1.712e-04      -3.766

-----------------------------Exchange composition------------------------------

X                5.000e-01 mol

	                               Equiv-    Equivalent      Log 
	Species             Moles      alents      Fraction     Gamma

	NaX               4.254e-01   4.254e-01   8.507e-01     0.016
	CaX2              2.891e-02   5.782e-02   1.156e-01    -0.297
	MgX2              8.406e-03   1.681e-02   3.362e-02    -0.091

-----------------------------Solution composition------------------------------

	Elements           Molality       Moles

	As                1.466e-08   1.466e-08
	C                 1.238e-02   1.238e-02
	Ca                2.281e-01   2.281e-01
	Cl                3.626e+00   3.626e+00
	Mg                1.045e-01   1.045e-01
	Na                2.974e+00   2.974e+00
	S                 2.635e-03   2.636e-03

----------------------------Description of solution----------------------------

                                       pH  =   5.601      Charge balance
                                       pe  =  15.067      Adjusted to redox equilibrium
                        Activity of water  =   0.882
                           Ionic strength  =   3.958e+00
                       Mass of water (kg)  =   1.000e+00
                 Total alkalinity (eq/kg)  =   8.347e-03
                       Total CO2 (mol/kg)  =   1.238e-02
                      Temperature (deg C)  =  25.000
                  Electrical balance (eq)  =  -1.233e-09
 Percent error, 100*(Cat-|An|)/(Cat+|An|)  =      0
                               Iterations  =   1
                                  Total H  = 1.110271e+02
                                  Total O  = 5.555330e+01

----------------------------Distribution of species----------------------------

                                                   Log       Log         Log 
   Species                 Molality    Activity  Molality  Activity     Gamma

   H+                     3.522e-06   2.509e-06    -5.453    -5.601    -0.147
   OH-                    7.159e-09   3.519e-09    -8.145    -8.454    -0.308
   H2O                    5.551e+01   8.820e-01     1.744    -0.055         0
As               1.466e-08
   H2AsO4-                1.456e-08   2.685e-08    -7.837    -7.571     0.266
   HAsO4-2                1.014e-10   1.173e-09    -9.994    -8.931     1.063
   H3AsO4                 4.705e-12   1.170e-11   -11.327   -10.932     0.396
   AsO4-3                 5.990e-18   1.479e-15   -17.223   -14.830     2.392
C(-4)            0.000e+00
   CH4                    0.000e+00   0.000e+00  -143.236  -142.841     0.396
C(4)             1.238e-02
   CO2                    4.035e-03   1.004e-02    -2.394    -1.998     0.396
   CaHCO3+                3.785e-03   2.261e-03    -2.422    -2.646    -0.224
   HCO3-                  2.628e-03   1.570e-03    -2.580    -2.804    -0.224
   NaHCO3                 1.095e-03   2.725e-03    -2.960    -2.565     0.396
   MgHCO3+                8.328e-04   1.536e-03    -3.079    -2.814     0.266
   CaCO3                  2.237e-06   5.565e-06    -5.650    -5.255     0.396
   MgCO3                  9.412e-07   2.341e-06    -6.026    -5.631     0.396
   NaCO3-                 9.144e-07   1.687e-06    -6.039    -5.773     0.266
   CO3-2                  2.306e-07   2.934e-08    -6.637    -7.532    -0.895
Ca               2.281e-01
   Ca+2                   2.237e-01   1.129e-01    -0.650    -0.947    -0.297
   CaHCO3+                3.785e-03   2.261e-03    -2.422    -2.646    -0.224
   CaSO4                  6.253e-04   1.556e-03    -3.204    -2.808     0.396
   CaCO3                  2.237e-06   5.565e-06    -5.650    -5.255     0.396
   CaHSO4+                1.240e-08   2.287e-08    -7.907    -7.641     0.266
   CaOH+                  3.571e-09   6.587e-09    -8.447    -8.181     0.266
Cl               3.626e+00
   Cl-                    3.626e+00   2.044e+00     0.559     0.310    -0.249
H(0)             0.000e+00
   H2                     0.000e+00   0.000e+00   -44.881   -44.485     0.396
Mg               1.045e-01
   Mg+2                   1.031e-01   8.362e-02    -0.987    -1.078    -0.091
   MgHCO3+                8.328e-04   1.536e-03    -3.079    -2.814     0.266
   MgSO4                  5.442e-04   1.354e-03    -3.264    -2.868     0.396
   MgCO3                  9.412e-07   2.341e-06    -6.026    -5.631     0.396
   MgOH+                  5.787e-08   1.067e-07    -7.238    -6.972     0.266
Na               2.974e+00
   Na+                    2.972e+00   3.087e+00     0.473     0.489     0.016
   NaHCO3                 1.095e-03   2.725e-03    -2.960    -2.565     0.396
   NaSO4-                 5.793e-04   1.068e-03    -3.237    -2.971     0.266
   NaCO3-                 9.144e-07   1.687e-06    -6.039    -5.773     0.266
   NaOH                   2.882e-09   7.169e-09    -8.540    -8.145     0.396
O(0)             2.438e-04
   O2                     1.219e-04   3.032e-04    -3.914    -3.518     0.396
S(-2)            0.000e+00
   H2S                    0.000e+00   0.000e+00  -140.289  -139.894     0.396
   HS-                    0.000e+00   0.000e+00  -140.926  -141.235    -0.308
   S-2                    0.000e+00   0.000e+00  -147.602  -148.552    -0.950
S(6)             2.635e-03
   SO4-2                  8.866e-04   6.907e-05    -3.052    -4.161    -1.108
   CaSO4                  6.253e-04   1.556e-03    -3.204    -2.808     0.396
   NaSO4-                 5.793e-04   1.068e-03    -3.237    -2.971     0.266
   MgSO4                  5.442e-04   1.354e-03    -3.264    -2.868     0.396
   CaHSO4+                1.240e-08   2.287e-08    -7.907    -7.641     0.266
   HSO4-                  9.135e-09   1.685e-08    -8.039    -7.773     0.266

------------------------------Saturation indices-------------------------------

	Phase               SI log IAP  log KT

	Anhydrite        -0.75   -5.11   -4.36  CaSO4
	Aragonite        -0.14   -8.48   -8.34  CaCO3
	Calcite              0   -8.48   -8.48  CaCO3
	CH4(g)         -139.98 -142.84   -2.86  CH4
	CO2(g)           -0.53   -2.00   -1.47  CO2
	Dolomite             0  -17.09  -17.09  CaMg(CO3)2
	Gypsum           -0.64   -5.22   -4.58  CaSO4:2H2O
	H2(g)           -41.34  -44.49   -3.15  H2
	H2O(g)           -1.56   -0.05    1.51  H2O
	H2S(g)         -138.90 -139.89   -1.00  H2S
	Halite           -0.78    0.80    1.58  NaCl
	O2(g)            -0.56   -3.52   -2.96  O2
	Sulfur         -103.44  -98.56    4.88  S

Time 10000. Cell 55: x=          36000	y=          18000	z=              0
Using solution 55.
Using exchange 55
Using surface 55.
Using pure phase assemblage 55.

-------------------------------Phase assemblage--------------------------------

                                                      Moles in assemblage
Phase                  SI log IAP  log KT      Initial       Final       Delta

Calcite                 0   -8.48   -8.48    1.543e-01   1.522e-01  -2.101e-03
Dolomite                0  -17.09  -17.09    1.556e+00   1.553e+00  -2.826e-03

------------------------------Surface composition------------------------------

Surf          
	  2.290e-16  Surface + diffuse layer charge, eq
	  2.015e-02  Surface charge, eq
	  1.080e-01  sigma, C/m**2
	  6.428e-02  psi, V
	 -2.502e+00  -F*psi/RT
	  8.191e-02  exp(-F*psi/RT)
	  6.000e+02  specific area, m**2/g
	  1.800e+04  m**2 for   3.000e+01 g

	Water in diffuse layer: 1.800e-01 kg, 100.0% of total DDL-water.

	Total moles in diffuse layer (excluding water)

	Element       	     Moles
	As            	  5.2382e-10
	C             	  4.4710e-03
	Ca            	  1.8078e-03
	Cl            	  7.0692e-02
	H             	  3.1670e-03
	Mg            	  1.2203e-03
	Na            	  4.8012e-02
	O             	  1.2888e-02
	S             	  1.7462e-04

Surf          
	  1.400e-01  moles
	                                   Mole                     Log
	Species               Moles    Fraction    Molality    Molality

	SurfOH            7.970e-02       0.569   7.969e-02      -1.099
	SurfOH2+          4.873e-02       0.348   4.873e-02      -1.312
	SurfOHAsO4-3      8.508e-03       0.061   8.507e-03      -2.070
	SurfO-            2.986e-03       0.021   2.986e-03      -2.525
	SurfHAsO4-        7.199e-05       0.001   7.198e-05      -4.143
	SurfH2AsO4        1.424e-06           0   1.424e-06      -5.846

-----------------------------Exchange composition------------------------------

X                5.000e-01 mol

	                               Equiv-    Equivalent      Log 
	Species             Moles      alents      Fraction     Gamma

	NaX               2.956e-01   2.956e-01   5.912e-01    -0.143
	CaX2              7.167e-02   1.433e-01   2.867e-01    -0.551
	MgX2              3.052e-02   6.105e-02   1.221e-01    -0.511

-----------------------------Solution composition------------------------------

	Elements           Molality       Moles

	As                1.543e-09   1.543e-09
	C                 2.157e-02   2.158e-02
	Ca                1.125e-02   1.125e-02
	Cl                3.107e-01   3.108e-01
	Mg                7.596e-03   7.597e-03
	Na                2.883e-01   2.883e-01
	S                 4.512e-04   4.512e-04

----------------------------Description of solution----------------------------

                                       pH  =   6.417      Charge balance
                                       pe  =  14.195      Adjusted to redox equilibrium
                        Activity of water  =   0.989
                           Ionic strength  =   3.422e-01
                       Mass of water (kg)  =   1.000e+00
                 Total alkalinity (eq/kg)  =   1.437e-02
                       Total CO2 (mol/kg)  =   2.157e-02
                      Temperature (deg C)  =  25.000
                  Electrical balance (eq)  =  -5.216e-11
 Percent error, 100*(Cat-|An|)/(Cat+|An|)  =      0
                               Iterations  =   1
                                  Total H  = 1.110381e+02
                                  Total O  = 5.557161e+01

----------------------------Distribution of species----------------------------

                                                   Log       Log         Log 
   Species                 Molality    Activity  Molality  Activity     Gamma

   H+                     4.923e-07   3.829e-07    -6.308    -6.417    -0.109
   OH-                    3.898e-08   2.586e-08    -7.409    -7.587    -0.178
   H2O                    5.551e+01   9.892e-01     1.744    -0.005         0
As               1.543e-09
   H2AsO4-                8.914e-10   6.522e-10    -9.050    -9.186    -0.136
   HAsO4-2                6.518e-10   1.868e-10    -9.186    -9.729    -0.543
   H3AsO4                 4.010e-14   4.339e-14   -13.397   -13.363     0.034
   AsO4-3                 2.567e-14   1.543e-15   -13.590   -14.812    -1.221
C(-4)            0.000e+00
   CH4                    0.000e+00   0.000e+00  -142.637  -142.603     0.034
C(4)             2.157e-02
   HCO3-                  1.257e-02   8.976e-03    -1.901    -2.047    -0.146
   CO2                    7.219e-03   7.811e-03    -2.142    -2.107     0.034
   NaHCO3                 9.644e-04   1.044e-03    -3.016    -2.982     0.034
   CaHCO3+                4.832e-04   3.450e-04    -3.316    -3.462    -0.146
   MgHCO3+                3.203e-04   2.344e-04    -3.494    -3.630    -0.136
   NaCO3-                 5.785e-06   4.233e-06    -5.238    -5.373    -0.136
   CaCO3                  5.143e-06   5.565e-06    -5.289    -5.255     0.034
   CO3-2                  4.229e-06   1.099e-06    -5.374    -5.959    -0.585
   MgCO3                  2.164e-06   2.341e-06    -5.665    -5.631     0.034
Ca               1.125e-02
   Ca+2                   1.073e-02   3.013e-03    -1.970    -2.521    -0.551
   CaHCO3+                4.832e-04   3.450e-04    -3.316    -3.462    -0.146
   CaSO4                  3.775e-05   4.085e-05    -4.423    -4.389     0.034
   CaCO3                  5.143e-06   5.565e-06    -5.289    -5.255     0.034
   CaOH+                  1.766e-09   1.292e-09    -8.753    -8.889    -0.136
   CaHSO4+                1.252e-10   9.161e-11    -9.902   -10.038    -0.136
Cl               3.107e-01
   Cl-                    3.107e-01   2.086e-01    -0.508    -0.681    -0.173
H(0)             0.000e+00
   H2                     0.000e+00   0.000e+00   -44.408   -44.374     0.034
Mg               7.596e-03
   Mg+2                   7.241e-03   2.232e-03    -2.140    -2.651    -0.511
   MgHCO3+                3.203e-04   2.344e-04    -3.494    -3.630    -0.136
   MgSO4                  3.285e-05   3.555e-05    -4.483    -4.449     0.034
   MgCO3                  2.164e-06   2.341e-06    -5.665    -5.631     0.034
   MgOH+                  2.861e-08   2.094e-08    -7.543    -7.679    -0.136
Na               2.883e-01
   Na+                    2.873e-01   2.067e-01    -0.542    -0.685    -0.143
   NaHCO3                 9.644e-04   1.044e-03    -3.016    -2.982     0.034
   NaSO4-                 9.622e-05   7.040e-05    -4.017    -4.152    -0.136
   NaCO3-                 5.785e-06   4.233e-06    -5.238    -5.373    -0.136
   NaOH                   3.262e-09   3.529e-09    -8.487    -8.452     0.034
O(0)             4.217e-04
   O2                     2.109e-04   2.281e-04    -3.676    -3.642     0.034
S(-2)            0.000e+00
   H2S                    0.000e+00   0.000e+00  -141.321  -141.287     0.034
   HS-                    0.000e+00   0.000e+00  -141.633  -141.811    -0.178
   S-2                    0.000e+00   0.000e+00  -147.704  -148.312    -0.608
S(6)             4.512e-04
[...]
   MgSO4                  1.429e-05   1.475e-05    -4.845    -4.831     0.014
   MgCO3                  2.268e-06   2.341e-06    -5.644    -5.631     0.014
   MgOH+                  2.196e-08   1.677e-08    -7.658    -7.775    -0.117
Na               1.244e-01
   Na+                    1.238e-01   9.457e-02    -0.907    -1.024    -0.117
   NaHCO3                 5.807e-04   5.995e-04    -3.236    -3.222     0.014
   NaSO4-                 5.272e-05   4.027e-05    -4.278    -4.395    -0.117
   NaCO3-                 7.637e-06   5.833e-06    -5.117    -5.234    -0.117
   NaOH                   3.774e-09   3.897e-09    -8.423    -8.409     0.014
O(0)             4.318e-04
   O2                     2.159e-04   2.229e-04    -3.666    -3.652     0.014
S(-2)            0.000e+00
   HS-                    0.000e+00   0.000e+00  -141.941  -142.074    -0.133
   H2S                    0.000e+00   0.000e+00  -141.943  -141.929     0.014
   S-2                    0.000e+00   0.000e+00  -147.724  -148.195    -0.471
S(6)             3.379e-04
   SO4-2                  2.545e-04   8.496e-05    -3.594    -4.071    -0.476
   NaSO4-                 5.272e-05   4.027e-05    -4.278    -4.395    -0.117
   CaSO4                  1.642e-05   1.695e-05    -4.785    -4.771     0.014
   MgSO4                  1.429e-05   1.475e-05    -4.845    -4.831     0.014
   HSO4-                  1.726e-09   1.318e-09    -8.763    -8.880    -0.117
   CaHSO4+                2.075e-11   1.585e-11   -10.683   -10.800    -0.117

------------------------------Saturation indices-------------------------------

	Phase               SI log IAP  log KT

	Anhydrite        -2.71   -7.07   -4.36  CaSO4
	Aragonite        -0.14   -8.48   -8.34  CaCO3
	Calcite              0   -8.48   -8.48  CaCO3
	CH4(g)         -140.00 -142.86   -2.86  CH4
	CO2(g)           -0.92   -2.39   -1.47  CO2
	Dolomite             0  -17.09  -17.09  CaMg(CO3)2
	Gypsum           -2.49   -7.07   -4.58  CaSO4:2H2O
	H2(g)           -41.22  -44.37   -3.15  H2
	H2O(g)           -1.51       0    1.51  H2O
	H2S(g)         -140.93 -141.93   -1.00  H2S
	Halite           -3.66   -2.08    1.58  NaCl
	O2(g)            -0.69   -3.65   -2.96  O2
	Sulfur         -105.60 -100.71    4.88  S

Time 10000. Cell 637: x=          72000	y=          18000	z=            400
Cell is dry.
Time 10000. Cell 640: x=          90000	y=          18000	z=            400
Cell is dry.
Time 10000. Cell 657: x=              0	y=          30000	z=            400
Cell is dry.
Time 10000. Cell 660: x=          18000	y=          30000	z=            400
Cell is dry.
Time 10000. Cell 663: x=          36000	y=          30000	z=            400
Using solution 663.
Using exchange 663
Using surface 663.
Using pure phase assemblage 663.

-------------------------------Phase assemblage--------------------------------

                                                      Moles in assemblage
Phase                  SI log IAP  log KT      Initial       Final       Delta

Calcite                 0   -8.48   -8.48    1.501e-01   1.479e-01  -2.151e-03
Dolomite                0  -17.09  -17.09    1.556e+00   1.553e+00  -2.629e-03

------------------------------Surface composition------------------------------

Surf          
	  1.561e-16  Surface + diffuse layer charge, eq
	  1.513e-02  Surface charge, eq
	  8.109e-02  sigma, C/m**2
	  5.934e-02  psi, V
	 -2.310e+00  -F*psi/RT
	  9.928e-02  exp(-F*psi/RT)
	  6.000e+02  specific area, m**2/g
	  1.800e+04  m**2 for   3.000e+01 g

	Water in diffuse layer: 1.800e-01 kg, 100.0% of total DDL-water.

	Total moles in diffuse layer (excluding water)

	Element       	     Moles
	As            	  5.2994e-10
	C             	  4.1954e-03
	Ca            	  1.1126e-03
	Cl            	  4.9521e-02
	H             	  3.1860e-03
	Mg            	  7.6534e-04
	Na            	  3.4135e-02
	O             	  1.2257e-02
	S             	  1.4950e-04

Surf          
	  1.400e-01  moles
	                                   Mole                     Log
	Species               Moles    Fraction    Molality    Molality

	SurfOH            8.346e-02       0.596   8.346e-02      -1.079
	SurfOH2+          4.436e-02       0.317   4.435e-02      -1.353
	SurfOHAsO4-3      8.526e-03       0.061   8.526e-03      -2.069
	SurfO-            3.598e-03       0.026   3.598e-03      -2.444
	SurfHAsO4-        5.433e-05           0   5.433e-05      -4.265
	SurfH2AsO4        9.343e-07           0   9.342e-07      -6.030

-----------------------------Exchange composition------------------------------

X                5.000e-01 mol

	                               Equiv-    Equivalent      Log 
	Species             Moles      alents      Fraction     Gamma

	NaX               2.791e-01   2.791e-01   5.582e-01    -0.134
	CaX2              7.703e-02   1.541e-01   3.081e-01    -0.514
	MgX2              3.343e-02   6.687e-02   1.337e-01    -0.482

-----------------------------Solution composition------------------------------

	Elements           Molality       Moles

	As                1.535e-09   1.535e-09
	C                 1.982e-02   1.982e-02
	Ca                7.053e-03   7.054e-03
	Cl                2.161e-01   2.161e-01
	Mg                4.851e-03   4.852e-03
	Na                2.073e-01   2.074e-01
	S                 3.926e-04   3.926e-04

----------------------------Description of solution----------------------------

                                       pH  =   6.561      Charge balance
                                       pe  =  14.049      Adjusted to redox equilibrium
                        Activity of water  =   0.992
                           Ionic strength  =   2.412e-01
                       Mass of water (kg)  =   1.000e+00
                 Total alkalinity (eq/kg)  =   1.426e-02
                       Total CO2 (mol/kg)  =   1.982e-02
                      Temperature (deg C)  =  25.000
                  Electrical balance (eq)  =  -3.349e-11
 Percent error, 100*(Cat-|An|)/(Cat+|An|)  =      0
                               Iterations  =   1
                                  Total H  = 1.110347e+02
                                  Total O  = 5.556612e+01

----------------------------Distribution of species----------------------------

                                                   Log       Log         Log 
   Species                 Molality    Activity  Molality  Activity     Gamma

   H+                     3.473e-07   2.745e-07    -6.459    -6.561    -0.102
   OH-                    5.229e-08   3.618e-08    -7.282    -7.442    -0.160
   H2O                    5.551e+01   9.923e-01     1.744    -0.003         0
As               1.535e-09
   H2AsO4-                7.725e-10   5.715e-10    -9.112    -9.243    -0.131
   HAsO4-2                7.620e-10   2.282e-10    -9.118    -9.642    -0.524
   AsO4-3                 3.961e-14   2.629e-15   -13.402   -14.580    -1.178
   H3AsO4                 2.579e-14   2.727e-14   -13.588   -13.564     0.024
C(-4)            0.000e+00
   CH4                    0.000e+00   0.000e+00  -142.736  -142.712     0.024
C(4)             1.982e-02
   HCO3-                  1.290e-02   9.479e-03    -1.890    -2.023    -0.134
   CO2                    5.578e-03   5.897e-03    -2.253    -2.229     0.024
   NaHCO3                 7.649e-04   8.086e-04    -3.116    -3.092     0.024
   CaHCO3+                3.366e-04   2.474e-04    -3.473    -3.607    -0.134
   MgHCO3+                2.272e-04   1.681e-04    -3.644    -3.774    -0.131
   NaCO3-                 6.182e-06   4.574e-06    -5.209    -5.340    -0.131
   CO3-2                  5.548e-06   1.619e-06    -5.256    -5.791    -0.535
   CaCO3                  5.264e-06   5.565e-06    -5.279    -5.255     0.024
   MgCO3                  2.215e-06   2.341e-06    -5.655    -5.631     0.024
Ca               7.053e-03
   Ca+2                   6.683e-03   2.046e-03    -2.175    -2.689    -0.514
   CaHCO3+                3.366e-04   2.474e-04    -3.473    -3.607    -0.134
   CaSO4                  2.802e-05   2.962e-05    -4.553    -4.528     0.024
   CaCO3                  5.264e-06   5.565e-06    -5.279    -5.255     0.024
   CaOH+                  1.659e-09   1.227e-09    -8.780    -8.911    -0.131
   CaHSO4+                6.439e-11   4.763e-11   -10.191   -10.322    -0.131
Cl               2.161e-01
   Cl-                    2.161e-01   1.508e-01    -0.665    -0.822    -0.156
H(0)             0.000e+00
   H2                     0.000e+00   0.000e+00   -44.394   -44.370     0.024
Mg               4.851e-03
   Mg+2                   4.598e-03   1.515e-03    -2.337    -2.819    -0.482
   MgHCO3+                2.272e-04   1.681e-04    -3.644    -3.774    -0.131
   MgSO4                  2.438e-05   2.577e-05    -4.613    -4.589     0.024
   MgCO3                  2.215e-06   2.341e-06    -5.655    -5.631     0.024
   MgOH+                  2.688e-08   1.989e-08    -7.571    -7.701    -0.131
Na               2.073e-01
   Na+                    2.065e-01   1.517e-01    -0.685    -0.819    -0.134
   NaHCO3                 7.649e-04   8.086e-04    -3.116    -3.092     0.024
   NaSO4-                 7.456e-05   5.516e-05    -4.128    -4.258    -0.131
   NaCO3-                 6.182e-06   4.574e-06    -5.209    -5.340    -0.131
   NaOH                   3.426e-09   3.622e-09    -8.465    -8.441     0.024
O(0)             4.266e-04
   O2                     2.133e-04   2.255e-04    -3.671    -3.647     0.024
S(-2)            0.000e+00
   H2S                    0.000e+00   0.000e+00  -141.561  -141.537     0.024
   HS-                    0.000e+00   0.000e+00  -141.757  -141.917    -0.160
   S-2                    0.000e+00   0.000e+00  -147.720  -148.274    -0.554
S(6)             3.926e-04
   SO4-2                  2.656e-04   7.256e-05    -3.576    -4.139    -0.564
   NaSO4-                 7.456e-05   5.516e-05    -4.128    -4.258    -0.131
   CaSO4                  2.802e-05   2.962e-05    -4.553    -4.528     0.024
   MgSO4                  2.438e-05   2.577e-05    -4.613    -4.589     0.024
   HSO4-                  2.618e-09   1.937e-09    -8.582    -8.713    -0.131
   CaHSO4+                6.439e-11   4.763e-11   -10.191   -10.322    -0.131

------------------------------Saturation indices-------------------------------

	Phase               SI log IAP  log KT

	Anhydrite        -2.47   -6.83   -4.36  CaSO4
	Aragonite        -0.14   -8.48   -8.34  CaCO3
	Calcite              0   -8.48   -8.48  CaCO3
	CH4(g)         -139.85 -142.71   -2.86  CH4
	CO2(g)           -0.76   -2.23   -1.47  CO2
	Dolomite             0  -17.09  -17.09  CaMg(CO3)2
	Gypsum           -2.25   -6.84   -4.58  CaSO4:2H2O
	H2(g)           -41.22  -44.37   -3.15  H2
	H2O(g)           -1.51       0    1.51  H2O
	H2S(g)         -140.54 -141.54   -1.00  H2S
	Halite           -3.22   -1.64    1.58  NaCl
	O2(g)            -0.69   -3.65   -2.96  O2
	Sulfur         -105.20 -100.32    4.88  S

Time 10000. Cell 666: x=          54000	y=          30000	z=            400
Using solution 666.
Using exchange 666
Using surface 666.
Using pure phase assemblage 666.

-------------------------------Phase assemblage--------------------------------

                                                      Moles in assemblage
Phase                  SI log IAP  log KT      Initial       Final       Delta

Calcite                 0   -8.48   -8.48    1.433e-01   1.410e-01  -2.274e-03
Dolomite                0  -17.09  -17.09    1.557e+00   1.554e+00  -2.656e-03

------------------------------Surface composition------------------------------

Surf          
	  2.012e-16  Surface + diffuse layer charge, eq
	  9.936e-03  Surface charge, eq
	  5.326e-02  sigma, C/m**2
	  5.151e-02  psi, V
	 -2.005e+00  -F*psi/RT
	  1.347e-01  exp(-F*psi/RT)
	  6.000e+02  specific area, m**2/g
	  1.800e+04  m**2 for   3.000e+01 g

	Water in diffuse layer: 1.800e-01 kg, 100.0% of total DDL-water.

	Total moles in diffuse layer (excluding water)

	Element       	     Moles
	As            	  5.9723e-10
	C             	  4.2357e-03
	Ca            	  5.2985e-04
	Cl            	  2.9849e-02
	H             	  3.4729e-03
	Mg            	  3.7152e-04
	Na            	  2.1844e-02
	O             	  1.2524e-02
	S             	  1.2386e-04

Surf          
	  1.400e-01  moles
	                                   Mole                     Log
	Species               Moles    Fraction    Molality    Molality

	SurfOH            8.712e-02       0.622   8.711e-02      -1.060
	SurfOH2+          3.995e-02       0.285   3.995e-02      -1.399
	SurfOHAsO4-3      8.540e-03       0.061   8.540e-03      -2.069
	SurfO-            4.352e-03       0.031   4.352e-03      -2.361
	SurfHAsO4-        4.041e-05           0   4.040e-05      -4.394
	SurfH2AsO4        5.996e-07           0   5.996e-07      -6.222

-----------------------------Exchange composition------------------------------

X                5.000e-01 mol

	                               Equiv-    Equivalent      Log 
	Species             Moles      alents      Fraction     Gamma

	NaX               2.672e-01   2.672e-01   5.345e-01    -0.120
	CaX2              8.066e-02   1.613e-01   3.226e-01    -0.458
	MgX2              3.572e-02   7.144e-02   1.429e-01    -0.435

-----------------------------Solution composition------------------------------

	Elements           Molality       Moles

	As                1.774e-09   1.775e-09
	C                 1.962e-02   1.962e-02
	Ca                3.446e-03   3.446e-03
	Cl                1.303e-01   1.303e-01
	Mg                2.416e-03   2.416e-03
	Na                1.347e-01   1.347e-01
	S                 3.444e-04   3.444e-04

----------------------------Description of solution----------------------------

                                       pH  =   6.758      Charge balance
                                       pe  =  13.850      Adjusted to redox equilibrium
                        Activity of water  =   0.995
                           Ionic strength  =   1.511e-01
                       Mass of water (kg)  =   1.000e+00
                 Total alkalinity (eq/kg)  =   1.544e-02
                       Total CO2 (mol/kg)  =   1.962e-02
                      Temperature (deg C)  =  25.000
                  Electrical balance (eq)  =  -1.507e-11
 Percent error, 100*(Cat-|An|)/(Cat+|An|)  =      0
                               Iterations  =   1
                                  Total H  = 1.110328e+02
                                  Total O  = 5.556518e+01

----------------------------Distribution of species----------------------------

                                                   Log       Log         Log 
   Species                 Molality    Activity  Molality  Activity     Gamma

   H+                     2.159e-07   1.747e-07    -6.666    -6.758    -0.092
   OH-                    7.816e-08   5.704e-08    -7.107    -7.244    -0.137
   H2O                    5.551e+01   9.951e-01     1.744    -0.002         0
As               1.774e-09
   HAsO4-2                1.045e-09   3.477e-10    -8.981    -9.459    -0.478
   H2AsO4-                7.293e-10   5.539e-10    -9.137    -9.257    -0.119
   AsO4-3                 7.487e-14   6.296e-15   -13.126   -14.201    -1.075
   H3AsO4                 1.624e-14   1.681e-14   -13.790   -13.774     0.015
C(-4)            0.000e+00
   CH4                    0.000e+00   0.000e+00  -142.848  -142.833     0.015
C(4)             1.962e-02
   HCO3-                  1.444e-02   1.102e-02    -1.840    -1.958    -0.117
   CO2                    4.201e-03   4.350e-03    -2.377    -2.362     0.015
   NaHCO3                 6.092e-04   6.307e-04    -3.215    -3.200     0.015
   CaHCO3+                2.062e-04   1.574e-04    -3.686    -3.803    -0.117
   MgHCO3+                1.408e-04   1.069e-04    -3.851    -3.971    -0.119
   CO3-2                  8.711e-06   2.960e-06    -5.060    -5.529    -0.469
   NaCO3-                 7.384e-06   5.608e-06    -5.132    -5.251    -0.119
   CaCO3                  5.375e-06   5.565e-06    -5.270    -5.255     0.015
   MgCO3                  2.261e-06   2.341e-06    -5.646    -5.631     0.015
Ca               3.446e-03
   Ca+2                   3.216e-03   1.119e-03    -2.493    -2.951    -0.458
   CaHCO3+                2.062e-04   1.574e-04    -3.686    -3.803    -0.117
   CaSO4                  1.785e-05   1.848e-05    -4.748    -4.733     0.015
   CaCO3                  5.375e-06   5.565e-06    -5.270    -5.255     0.015
   CaOH+                  1.393e-09   1.058e-09    -8.856    -8.975    -0.119
   CaHSO4+                2.490e-11   1.891e-11   -10.604   -10.723    -0.119
Cl               1.303e-01
   Cl-                    1.303e-01   9.559e-02    -0.885    -1.020    -0.135
H(0)             0.000e+00
   H2                     0.000e+00   0.000e+00   -44.382   -44.367     0.015
Mg               2.416e-03
   Mg+2                   2.257e-03   8.290e-04    -2.646    -3.081    -0.435
   MgHCO3+                1.408e-04   1.069e-04    -3.851    -3.971    -0.119
   MgSO4                  1.553e-05   1.608e-05    -4.809    -4.794     0.015
   MgCO3                  2.261e-06   2.341e-06    -5.646    -5.631     0.015
   MgOH+                  2.258e-08   1.715e-08    -7.646    -7.766    -0.119
Na               1.347e-01
   Na+                    1.341e-01   1.018e-01    -0.873    -0.992    -0.120
   NaHCO3                 6.092e-04   6.307e-04    -3.215    -3.200     0.015
   NaSO4-                 5.557e-05   4.220e-05    -4.255    -4.375    -0.119
   NaCO3-                 7.384e-06   5.608e-06    -5.132    -5.251    -0.119
   NaOH                   3.699e-09   3.830e-09    -8.432    -8.417     0.015
O(0)             4.312e-04
   O2                     2.156e-04   2.232e-04    -3.666    -3.651     0.015
S(-2)            0.000e+00
   H2S                    0.000e+00   0.000e+00  -141.879  -141.864     0.015
   HS-                    0.000e+00   0.000e+00  -141.911  -142.047    -0.137
   S-2                    0.000e+00   0.000e+00  -147.724  -148.208    -0.483
S(6)             3.444e-04
   SO4-2                  2.554e-04   8.276e-05    -3.593    -4.082    -0.489
   NaSO4-                 5.557e-05   4.220e-05    -4.255    -4.375    -0.119
   CaSO4                  1.785e-05   1.848e-05    -4.748    -4.733     0.015
   MgSO4                  1.553e-05   1.608e-05    -4.809    -4.794     0.015
   HSO4-                  1.850e-09   1.405e-09    -8.733    -8.852    -0.119
   CaHSO4+                2.490e-11   1.891e-11   -10.604   -10.723    -0.119

------------------------------Saturation indices-------------------------------

	Phase               SI log IAP  log KT

	Anhydrite        -2.67   -7.03   -4.36  CaSO4
	Aragonite        -0.14   -8.48   -8.34  CaCO3
	Calcite              0   -8.48   -8.48  CaCO3
	CH4(g)         -139.97 -142.83   -2.86  CH4
	CO2(g)           -0.89   -2.36   -1.47  CO2
	Dolomite             0  -17.09  -17.09  CaMg(CO3)2
	Gypsum           -2.46   -7.04   -4.58  CaSO4:2H2O
	H2(g)           -41.22  -44.37   -3.15  H2
	H2O(g)           -1.51       0    1.51  H2O
	H2S(g)         -140.87 -141.86   -1.00  H2S
	Halite           -3.59   -2.01    1.58  NaCl
	O2(g)            -0.69   -3.65   -2.96  O2
	Sulfur         -105.53 -100.65    4.88  S

Time 10000. Cell 669: x=          72000	y=          30000	z=            400
Cell is dry.
Time 10000. Cell 672: x=          90000	y=          30000	z=            400
Cell is dry.
Time 10000. Cell 705: x=              0	y=          48000	z=            400
Cell is dry.
Time 10000. Cell 708: x=          18000	y=          48000	z=            400
Cell is dry.
Time 10000. Cell 711: x=          36000	y=          48000	z=            400
Cell is dry.
Time 10000. Cell 714: x=          54000	y=          48000	z=            400
Cell is dry.
Time 10000. Cell 717: x=          72000	y=          48000	z=            400
Cell is dry.
Time 10000. Cell 720: x=          90000	y=          48000	z=            400
Cell is dry.
