Output file:    linear_bc.chem.txt
Chemistry file: linear_bc.chem.dat
Database file:  phast.dat

------------------
Reading data base.
------------------

	SOLUTION_MASTER_SPECIES
	SOLUTION_SPECIES
	PHASES
	EXCHANGE_MASTER_SPECIES
	EXCHANGE_SPECIES
	SURFACE_MASTER_SPECIES
	SURFACE_SPECIES
	RATES
	END
------------------------------------
Reading input data for simulation 1.
------------------------------------

	SOLUTION 1
	        Na      1.0
	        Cl      1.0
	SOLUTION 2
	        Na      2.0
	        Cl      2.0
	END
-------------------------------------------
Beginning of initial solution calculations.
-------------------------------------------

Initial solution 1.	

-----------------------------Solution composition------------------------------

	Elements           Molality       Moles

	Cl                1.000e-03   1.000e-03
	Na                1.000e-03   1.000e-03

----------------------------Description of solution----------------------------

                                       pH  =   7.000    
                                       pe  =   4.000    
                        Activity of water  =   1.000
                           Ionic strength  =   1.000e-03
                       Mass of water (kg)  =   1.000e+00
                 Total alkalinity (eq/kg)  =   3.658e-10
                    Total carbon (mol/kg)  =   0 
                       Total CO2 (mol/kg)  =   0 
                      Temperature (deg C)  =  25.000
                  Electrical balance (eq)  =  -3.658e-10
 Percent error, 100*(Cat-|An|)/(Cat+|An|)  =      0
                               Iterations  =   3
                                  Total H  = 1.110124e+02
                                  Total O  = 5.550622e+01

----------------------------Distribution of species----------------------------

                                                   Log       Log         Log 
   Species                 Molality    Activity  Molality  Activity     Gamma

   OH-                    1.038e-07   1.001e-07    -6.984    -7.000    -0.016
   H+                     1.034e-07   1.000e-07    -6.985    -7.000    -0.015
   H2O                    5.551e+01   1.000e+00     1.744         0        0
Cl               1.000e-03
   Cl-                    1.000e-03   9.649e-04    -3.000    -3.016    -0.016
H(0)             1.416e-25
   H2                     7.078e-26   7.079e-26   -25.150   -25.150         0
Na               1.000e-03
   Na+                    1.000e-03   9.652e-04    -3.000    -3.015    -0.015
   NaOH                   6.375e-11   6.377e-11   -10.196   -10.195         0
O(0)             0 
   O2                     0  0  -42.080   -42.080         0

------------------------------Saturation indices-------------------------------

	Phase               SI log IAP  log KT

	H2(g)           -22.00  -25.15   -3.15  H2
	H2O(g)           -1.51       0   1.51  H2O
	Halite           -7.61   -6.03    1.58  NaCl
	O2(g)           -39.12  -42.08   -2.96  O2

Initial solution 2.	

-----------------------------Solution composition------------------------------

	Elements           Molality       Moles

	Cl                2.000e-03   2.000e-03
	Na                2.000e-03   2.000e-03

----------------------------Description of solution----------------------------

                                       pH  =   7.000    
                                       pe  =   4.000    
                        Activity of water  =   1.000
                           Ionic strength  =   2.000e-03
                       Mass of water (kg)  =   1.000e+00
                 Total alkalinity (eq/kg)  =   6.056e-10
                    Total carbon (mol/kg)  =   0 
                       Total CO2 (mol/kg)  =   0 
                      Temperature (deg C)  =  25.000
                  Electrical balance (eq)  =  -6.056e-10
 Percent error, 100*(Cat-|An|)/(Cat+|An|)  =      0
                               Iterations  =   3
                                  Total H  = 1.110124e+02
                                  Total O  = 5.550622e+01

----------------------------Distribution of species----------------------------

                                                   Log       Log         Log 
   Species                 Molality    Activity  Molality  Activity     Gamma

   OH-                    1.052e-07   1.001e-07    -6.978    -7.000    -0.022
   H+                     1.047e-07   1.000e-07    -6.980    -7.000    -0.020
   H2O                    5.551e+01   9.999e-01     1.744         0        0
Cl               2.000e-03
   Cl-                    2.000e-03   1.903e-03    -2.699    -2.721    -0.022
H(0)             1.415e-25
   H2                     7.076e-26   7.079e-26   -25.150   -25.150         0
Na               2.000e-03
   Na+                    2.000e-03   1.904e-03    -2.699    -2.720    -0.021
   NaOH                   1.257e-10   1.258e-10    -9.901    -9.900         0
O(0)             0 
   O2                     0  0  -42.080   -42.080         0

------------------------------Saturation indices-------------------------------

	Phase               SI log IAP  log KT

	H2(g)           -22.00  -25.15   -3.15  H2
	H2O(g)           -1.51       0   1.51  H2O
	Halite           -7.02   -5.44    1.58  NaCl
	O2(g)           -39.12  -42.08   -2.96  O2

------------------
End of simulation.
------------------

------------------------------------
Reading input data for simulation 2.
------------------------------------

	SELECTED_OUTPUT
	        file linear_bc.sel
	        reset false
	        totals Na      Cl
	END
------------------
End of simulation.
------------------

------------------------------------
Reading input data for simulation 3.
------------------------------------

List of Components:
	1	H
	2	O
	3	Cl
	4	Na
	5	Charge
List of master species:
	1	Cl
	2	Na
Time 0 Cell 1: x=              0	y=              0	z=              0
Using solution 1.

-----------------------------Solution composition------------------------------

	Elements           Molality       Moles

	Cl                1.000e-03   1.000e-03
	Na                1.000e-03   1.000e-03

----------------------------Description of solution----------------------------

                                       pH  =   7.000      Charge balance
                                       pe  =   4.000      Adjusted to redox equilibrium
                        Activity of water  =   1.000
                           Ionic strength  =   1.000e-03
                       Mass of water (kg)  =   1.000e+00
                 Total alkalinity (eq/kg)  =   3.658e-10
                    Total carbon (mol/kg)  =   0 
                       Total CO2 (mol/kg)  =   0 
                      Temperature (deg C)  =  25.000
                  Electrical balance (eq)  =  -3.658e-10
 Percent error, 100*(Cat-|An|)/(Cat+|An|)  =      0
                               Iterations  =   0
                                  Total H  = 1.110124e+02
                                  Total O  = 5.550622e+01

----------------------------Distribution of species----------------------------

                                                   Log       Log         Log 
   Species                 Molality    Activity  Molality  Activity     Gamma

   OH-                    1.038e-07   1.001e-07    -6.984    -7.000    -0.016
   H+                     1.034e-07   1.000e-07    -6.985    -7.000    -0.015
   H2O                    5.551e+01   1.000e+00     1.744         0        0
Cl               1.000e-03
   Cl-                    1.000e-03   9.649e-04    -3.000    -3.016    -0.016
H(0)             1.416e-25
   H2                     7.078e-26   7.079e-26   -25.150   -25.150         0
Na               1.000e-03
   Na+                    1.000e-03   9.652e-04    -3.000    -3.015    -0.015
   NaOH                   6.375e-11   6.377e-11   -10.196   -10.195         0
O(0)             0 
   O2                     0  0  -42.080   -42.080         0

------------------------------Saturation indices-------------------------------

	Phase               SI log IAP  log KT

	H2(g)           -22.00  -25.15   -3.15  H2
	H2O(g)           -1.51       0   1.51  H2O
	Halite           -7.61   -6.03    1.58  NaCl
	O2(g)           -39.12  -42.08   -2.96  O2

Time 0 Cell 2: x=              1	y=              0	z=              0
Using solution 2.

-----------------------------Solution composition------------------------------

	Elements           Molality       Moles

	Cl                1.100e-03   1.100e-03
	Na                1.100e-03   1.100e-03

----------------------------Description of solution----------------------------

                                       pH  =   7.000      Charge balance
                                       pe  =  -1.398      Adjusted to redox equilibrium
                        Activity of water  =   1.000
                           Ionic strength  =   1.100e-03
                       Mass of water (kg)  =   1.000e+00
                 Total alkalinity (eq/kg)  =   3.898e-10
                    Total carbon (mol/kg)  =   0 
                       Total CO2 (mol/kg)  =   0 
                      Temperature (deg C)  =  25.000
                  Electrical balance (eq)  =  -3.898e-10
 Percent error, 100*(Cat-|An|)/(Cat+|An|)  =      0
                               Iterations  =  13
                                  Total H  = 1.110124e+02
                                  Total O  = 5.550622e+01

----------------------------Distribution of species----------------------------

                                                   Log       Log         Log 
   Species                 Molality    Activity  Molality  Activity     Gamma

   OH-                    1.039e-07   1.001e-07    -6.983    -7.000    -0.016
   H+                     1.036e-07   1.000e-07    -6.985    -7.000    -0.015
   H2O                    5.551e+01   1.000e+00     1.744         0        0
Cl               1.100e-03
   Cl-                    1.100e-03   1.060e-03    -2.959    -2.975    -0.016
H(0)             8.833e-15
   H2                     4.416e-15   4.417e-15   -14.355   -14.355         0
Na               1.100e-03
   Na+                    1.100e-03   1.060e-03    -2.959    -2.975    -0.016
   NaOH                   7.001e-11   7.003e-11   -10.155   -10.155         0
O(0)             0 
   O2                     0  0  -63.670   -63.670         0

------------------------------Saturation indices-------------------------------

	Phase               SI log IAP  log KT

	H2(g)           -11.20  -14.35   -3.15  H2
	H2O(g)           -1.51       0   1.51  H2O
	Halite           -7.53   -5.95    1.58  NaCl
	O2(g)           -60.71  -63.67   -2.96  O2

Time 0 Cell 3: x=              2	y=              0	z=              0
Using solution 3.

-----------------------------Solution composition------------------------------

	Elements           Molality       Moles

	Cl                1.200e-03   1.200e-03
	Na                1.200e-03   1.200e-03

----------------------------Description of solution----------------------------

                                       pH  =   7.000      Charge balance
                                       pe  =  10.886      Adjusted to redox equilibrium
                        Activity of water  =   1.000
                           Ionic strength  =   1.200e-03
                       Mass of water (kg)  =   1.000e+00
                 Total alkalinity (eq/kg)  =   4.137e-10
                    Total carbon (mol/kg)  =   0 
                       Total CO2 (mol/kg)  =   0 
                      Temperature (deg C)  =  25.000
                  Electrical balance (eq)  =  -4.137e-10
 Percent error, 100*(Cat-|An|)/(Cat+|An|)  =      0
                               Iterations  =  12
                                  Total H  = 1.110124e+02
                                  Total O  = 5.550622e+01

----------------------------Distribution of species----------------------------

                                                   Log       Log         Log 
   Species                 Molality    Activity  Molality  Activity     Gamma

   OH-                    1.041e-07   1.001e-07    -6.983    -7.000    -0.017
   H+                     1.038e-07   1.000e-07    -6.984    -7.000    -0.016
   H2O                    5.551e+01   1.000e+00     1.744         0        0
Cl               1.200e-03
   Cl-                    1.200e-03   1.154e-03    -2.921    -2.938    -0.017
H(0)             2.390e-39
   H2                     1.195e-39   1.196e-39   -38.923   -38.922         0
Na               1.200e-03
   Na+                    1.200e-03   1.155e-03    -2.921    -2.938    -0.017
   NaOH                   7.625e-11   7.627e-11   -10.118   -10.118         0
O(0)             5.831e-15
   O2                     2.915e-15   2.916e-15   -14.535   -14.535         0

------------------------------Saturation indices-------------------------------

	Phase               SI log IAP  log KT

	H2(g)           -35.77  -38.92   -3.15  H2
	H2O(g)           -1.51       0   1.51  H2O
	Halite           -7.46   -5.88    1.58  NaCl
	O2(g)           -11.58  -14.54   -2.96  O2

Time 0 Cell 4: x=              3	y=              0	z=              0
Using solution 4.

-----------------------------Solution composition------------------------------

	Elements           Molality       Moles

	Cl                1.300e-03   1.300e-03
	Na                1.300e-03   1.300e-03

----------------------------Description of solution----------------------------

                                       pH  =   7.000      Charge balance
                                       pe  =  -0.999      Adjusted to redox equilibrium
                        Activity of water  =   1.000
                           Ionic strength  =   1.300e-03
                       Mass of water (kg)  =   1.000e+00
                 Total alkalinity (eq/kg)  =   4.377e-10
                    Total carbon (mol/kg)  =   0 
                       Total CO2 (mol/kg)  =   0 
                      Temperature (deg C)  =  25.000
                  Electrical balance (eq)  =  -4.377e-10
 Percent error, 100*(Cat-|An|)/(Cat+|An|)  =      0
                               Iterations  =  11
                                  Total H  = 1.110124e+02
                                  Total O  = 5.550622e+01

----------------------------Distribution of species----------------------------

                                                   Log       Log         Log 
   Species                 Molality    Activity  Molality  Activity     Gamma

   OH-                    1.043e-07   1.001e-07    -6.982    -7.000    -0.018
   H+                     1.039e-07   1.000e-07    -6.983    -7.000    -0.017
   H2O                    5.551e+01   1.000e+00     1.744         0        0
Cl               1.300e-03
   Cl-                    1.300e-03   1.248e-03    -2.886    -2.904    -0.018
H(0)             1.411e-15
   H2                     7.054e-16   7.056e-16   -15.152   -15.151         0
Na               1.300e-03
   Na+                    1.300e-03   1.249e-03    -2.886    -2.903    -0.017
   NaOH                   8.248e-11   8.251e-11   -10.084   -10.084         0
O(0)             0 
   O2                     0  0  -62.077   -62.077         0

------------------------------Saturation indices-------------------------------

	Phase               SI log IAP  log KT

	H2(g)           -12.00  -15.15   -3.15  H2
	H2O(g)           -1.51       0   1.51  H2O
	Halite           -7.39   -5.81    1.58  NaCl
	O2(g)           -59.12  -62.08   -2.96  O2

Time 0 Cell 5: x=              4	y=              0	z=              0
Using solution 5.

-----------------------------Solution composition------------------------------

	Elements           Molality       Moles

	Cl                1.400e-03   1.400e-03
	Na                1.400e-03   1.400e-03

----------------------------Description of solution----------------------------

                                       pH  =   7.000      Charge balance
                                       pe  =  -1.265      Adjusted to redox equilibrium
                        Activity of water  =   1.000
                           Ionic strength  =   1.400e-03
                       Mass of water (kg)  =   1.000e+00
                 Total alkalinity (eq/kg)  =   4.617e-10
                    Total carbon (mol/kg)  =   0 
                       Total CO2 (mol/kg)  =   0 
                      Temperature (deg C)  =  25.000
                  Electrical balance (eq)  =  -4.617e-10
 Percent error, 100*(Cat-|An|)/(Cat+|An|)  =      0
                               Iterations  =  10
                                  Total H  = 1.110124e+02
                                  Total O  = 5.550622e+01

----------------------------Distribution of species----------------------------

                                                   Log       Log         Log 
   Species                 Molality    Activity  Molality  Activity     Gamma

   OH-                    1.044e-07   1.001e-07    -6.981    -7.000    -0.018
   H+                     1.040e-07   1.000e-07    -6.983    -7.000    -0.017
   H2O                    5.551e+01   1.000e+00     1.744         0        0
Cl               1.400e-03
   Cl-                    1.400e-03   1.342e-03    -2.854    -2.872    -0.018
H(0)             4.806e-15
   H2                     2.403e-15   2.404e-15   -14.619   -14.619         0
Na               1.400e-03
   Na+                    1.400e-03   1.343e-03    -2.854    -2.872    -0.018
   NaOH                   8.870e-11   8.872e-11   -10.052   -10.052         0
O(0)             0 
   O2                     0  0  -63.142   -63.142         0

------------------------------Saturation indices-------------------------------

	Phase               SI log IAP  log KT

	H2(g)           -11.47  -14.62   -3.15  H2
	H2O(g)           -1.51       0   1.51  H2O
	Halite           -7.33   -5.74    1.58  NaCl
	O2(g)           -60.18  -63.14   -2.96  O2

Time 0 Cell 6: x=              5	y=              0	z=              0
Using solution 6.

-----------------------------Solution composition------------------------------

	Elements           Molality       Moles

	Cl                1.500e-03   1.500e-03
	Na                1.500e-03   1.500e-03

----------------------------Description of solution----------------------------

                                       pH  =   7.000      Charge balance
                                       pe  =  -1.397      Adjusted to redox equilibrium
                        Activity of water  =   1.000
                           Ionic strength  =   1.500e-03
                       Mass of water (kg)  =   1.000e+00
                 Total alkalinity (eq/kg)  =   4.857e-10
                    Total carbon (mol/kg)  =   0 
                       Total CO2 (mol/kg)  =   0 
                      Temperature (deg C)  =  25.000
                  Electrical balance (eq)  =  -4.857e-10
 Percent error, 100*(Cat-|An|)/(Cat+|An|)  =      0
                               Iterations  =  10
                                  Total H  = 1.110124e+02
                                  Total O  = 5.550622e+01

----------------------------Distribution of species----------------------------

                                                   Log       Log         Log 
   Species                 Molality    Activity  Molality  Activity     Gamma

   OH-                    1.046e-07   1.001e-07    -6.981    -7.000    -0.019
   H+                     1.042e-07   1.000e-07    -6.982    -7.000    -0.018
   H2O                    5.551e+01   9.999e-01     1.744         0        0
Cl               1.500e-03
   Cl-                    1.500e-03   1.436e-03    -2.824    -2.843    -0.019
H(0)             8.807e-15
   H2                     4.403e-15   4.405e-15   -14.356   -14.356         0
Na               1.500e-03
   Na+                    1.500e-03   1.437e-03    -2.824    -2.843    -0.019
   NaOH                   9.490e-11   9.493e-11   -10.023   -10.023         0
O(0)             0 
   O2                     0  0  -63.668   -63.668         0

------------------------------Saturation indices-------------------------------

	Phase               SI log IAP  log KT

	H2(g)           -11.21  -14.36   -3.15  H2
	H2O(g)           -1.51       0   1.51  H2O
	Halite           -7.27   -5.69    1.58  NaCl
	O2(g)           -60.71  -63.67   -2.96  O2

Time 0 Cell 7: x=              6	y=              0	z=              0
Using solution 7.

-----------------------------Solution composition------------------------------

	Elements           Molality       Moles

	Cl                1.600e-03   1.600e-03
	Na                1.600e-03   1.600e-03

----------------------------Description of solution----------------------------

                                       pH  =   7.000      Charge balance
                                       pe  =  11.452      Adjusted to redox equilibrium
                        Activity of water  =   1.000
                           Ionic strength  =   1.600e-03
                       Mass of water (kg)  =   1.000e+00
                 Total alkalinity (eq/kg)  =   5.097e-10
                    Total carbon (mol/kg)  =   0 
                       Total CO2 (mol/kg)  =   0 
                      Temperature (deg C)  =  25.000
                  Electrical balance (eq)  =  -5.097e-10
 Percent error, 100*(Cat-|An|)/(Cat+|An|)  =      0
                               Iterations  =   9
                                  Total H  = 1.110124e+02
                                  Total O  = 5.550622e+01

----------------------------Distribution of species----------------------------

                                                   Log       Log         Log 
   Species                 Molality    Activity  Molality  Activity     Gamma

   OH-                    1.047e-07   1.001e-07    -6.980    -7.000    -0.019
   H+                     1.043e-07   1.000e-07    -6.982    -7.000    -0.018
   H2O                    5.551e+01   9.999e-01     1.744         0        0
Cl               1.600e-03
   Cl-                    1.600e-03   1.530e-03    -2.796    -2.815    -0.019
H(0)             0 
   H2                     0  0  -40.055   -40.055         0
Na               1.600e-03
   Na+                    1.600e-03   1.531e-03    -2.796    -2.815    -0.019
   NaOH                   1.011e-10   1.011e-10    -9.995    -9.995         0
O(0)             1.073e-12
   O2                     5.363e-13   5.365e-13   -12.271   -12.270         0

------------------------------Saturation indices-------------------------------

	Phase               SI log IAP  log KT

	H2(g)           -36.90  -40.05   -3.15  H2
	H2O(g)           -1.51       0   1.51  H2O
	Halite           -7.21   -5.63    1.58  NaCl
	O2(g)            -9.31  -12.27   -2.96  O2

Time 0 Cell 8: x=              7	y=              0	z=              0
Using solution 8.

-----------------------------Solution composition------------------------------

	Elements           Molality       Moles

	Cl                1.700e-03   1.700e-03
	Na                1.700e-03   1.700e-03

----------------------------Description of solution----------------------------

                                       pH  =   7.000      Charge balance
                                       pe  =  -0.870      Adjusted to redox equilibrium
                        Activity of water  =   1.000
                           Ionic strength  =   1.700e-03
                       Mass of water (kg)  =   1.000e+00
                 Total alkalinity (eq/kg)  =   5.336e-10
                    Total carbon (mol/kg)  =   0 
                       Total CO2 (mol/kg)  =   0 
                      Temperature (deg C)  =  25.000
                  Electrical balance (eq)  =  -5.336e-10
 Percent error, 100*(Cat-|An|)/(Cat+|An|)  =      0
                               Iterations  =   9
                                  Total H  = 1.110124e+02
                                  Total O  = 5.550622e+01

----------------------------Distribution of species----------------------------

                                                   Log       Log         Log 
   Species                 Molality    Activity  Molality  Activity     Gamma

   OH-                    1.048e-07   1.001e-07    -6.980    -7.000    -0.020
   H+                     1.044e-07   1.000e-07    -6.981    -7.000    -0.019
   H2O                    5.551e+01   9.999e-01     1.744         0        0
Cl               1.700e-03
   Cl-                    1.700e-03   1.623e-03    -2.770    -2.790    -0.020
H(0)             7.780e-16
   H2                     3.890e-16   3.892e-16   -15.410   -15.410         0
Na               1.700e-03
   Na+                    1.700e-03   1.624e-03    -2.770    -2.789    -0.020
   NaOH                   1.073e-10   1.073e-10    -9.970    -9.969         0
O(0)             0 
   O2                     0  0  -61.561   -61.560         0

------------------------------Saturation indices-------------------------------

	Phase               SI log IAP  log KT

	H2(g)           -12.26  -15.41   -3.15  H2
	H2O(g)           -1.51       0   1.51  H2O
	Halite           -7.16   -5.58    1.58  NaCl
	O2(g)           -58.60  -61.56   -2.96  O2

Time 0 Cell 9: x=              8	y=              0	z=              0
Using solution 9.

-----------------------------Solution composition------------------------------

	Elements           Molality       Moles

	Cl                1.800e-03   1.800e-03
	Na                1.800e-03   1.800e-03

----------------------------Description of solution----------------------------

                                       pH  =   7.000      Charge balance
                                       pe  =  11.440      Adjusted to redox equilibrium
                        Activity of water  =   1.000
                           Ionic strength  =   1.800e-03
                       Mass of water (kg)  =   1.000e+00
                 Total alkalinity (eq/kg)  =   5.576e-10
                    Total carbon (mol/kg)  =   0 
                       Total CO2 (mol/kg)  =   0 
                      Temperature (deg C)  =  25.000
                  Electrical balance (eq)  =  -5.576e-10
 Percent error, 100*(Cat-|An|)/(Cat+|An|)  =      0
                               Iterations  =   9
                                  Total H  = 1.110124e+02
                                  Total O  = 5.550622e+01

----------------------------Distribution of species----------------------------

                                                   Log       Log         Log 
   Species                 Molality    Activity  Molality  Activity     Gamma

   OH-                    1.050e-07   1.001e-07    -6.979    -7.000    -0.021
   H+                     1.045e-07   1.000e-07    -6.981    -7.000    -0.019
   H2O                    5.551e+01   9.999e-01     1.744         0        0
Cl               1.800e-03
   Cl-                    1.800e-03   1.717e-03    -2.745    -2.765    -0.021
H(0)             0 
   H2                     0  0  -40.031   -40.031         0
Na               1.800e-03
   Na+                    1.800e-03   1.718e-03    -2.745    -2.765    -0.020
   NaOH                   1.134e-10   1.135e-10    -9.945    -9.945         0
O(0)             9.607e-13
   O2                     4.804e-13   4.806e-13   -12.318   -12.318         0

------------------------------Saturation indices-------------------------------

	Phase               SI log IAP  log KT

	H2(g)           -36.88  -40.03   -3.15  H2
	H2O(g)           -1.51       0   1.51  H2O
	Halite           -7.11   -5.53    1.58  NaCl
	O2(g)            -9.36  -12.32   -2.96  O2

Time 0 Cell 10: x=              9	y=              0	z=              0
Using solution 10.

-----------------------------Solution composition------------------------------

	Elements           Molality       Moles

	Cl                1.900e-03   1.900e-03
	Na                1.900e-03   1.900e-03

----------------------------Description of solution----------------------------

                                       pH  =   7.000      Charge balance
                                       pe  =  11.464      Adjusted to redox equilibrium
                        Activity of water  =   1.000
                           Ionic strength  =   1.900e-03
                       Mass of water (kg)  =   1.000e+00
                 Total alkalinity (eq/kg)  =   5.816e-10
                    Total carbon (mol/kg)  =   0 
                       Total CO2 (mol/kg)  =   0 
                      Temperature (deg C)  =  25.000
                  Electrical balance (eq)  =  -5.816e-10
 Percent error, 100*(Cat-|An|)/(Cat+|An|)  =      0
                               Iterations  =   9
                                  Total H  = 1.110124e+02
                                  Total O  = 5.550622e+01

----------------------------Distribution of species----------------------------

                                                   Log       Log         Log 
   Species                 Molality    Activity  Molality  Activity     Gamma

   OH-                    1.051e-07   1.001e-07    -6.978    -7.000    -0.021
   H+                     1.046e-07   1.000e-07    -6.980    -7.000    -0.020
   H2O                    5.551e+01   9.999e-01     1.744         0        0
Cl               1.900e-03
   Cl-                    1.900e-03   1.810e-03    -2.721    -2.742    -0.021
H(0)             0 
   H2                     0  0  -40.078   -40.078         0
Na               1.900e-03
   Na+                    1.900e-03   1.811e-03    -2.721    -2.742    -0.021
   NaOH                   1.196e-10   1.196e-10    -9.922    -9.922         0
O(0)             1.192e-12
   O2                     5.962e-13   5.965e-13   -12.225   -12.224         0

------------------------------Saturation indices-------------------------------

	Phase               SI log IAP  log KT

	H2(g)           -36.93  -40.08   -3.15  H2
	H2O(g)           -1.51       0   1.51  H2O
	Halite           -7.07   -5.48    1.58  NaCl
	O2(g)            -9.26  -12.22   -2.96  O2

Time 0 Cell 11: x=             10	y=              0	z=              0
Using solution 11.

-----------------------------Solution composition------------------------------

	Elements           Molality       Moles

	Cl                2.000e-03   2.000e-03
	Na                2.000e-03   2.000e-03

----------------------------Description of solution----------------------------

                                       pH  =   7.000      Charge balance
                                       pe  =   4.000      Adjusted to redox equilibrium
                        Activity of water  =   1.000
                           Ionic strength  =   2.000e-03
                       Mass of water (kg)  =   1.000e+00
                 Total alkalinity (eq/kg)  =   6.056e-10
                    Total carbon (mol/kg)  =   0 
                       Total CO2 (mol/kg)  =   0 
                      Temperature (deg C)  =  25.000
                  Electrical balance (eq)  =  -6.056e-10
 Percent error, 100*(Cat-|An|)/(Cat+|An|)  =      0
                               Iterations  =   0
                                  Total H  = 1.110124e+02
                                  Total O  = 5.550622e+01

----------------------------Distribution of species----------------------------

                                                   Log       Log         Log 
   Species                 Molality    Activity  Molality  Activity     Gamma

   OH-                    1.052e-07   1.001e-07    -6.978    -7.000    -0.022
   H+                     1.047e-07   1.000e-07    -6.980    -7.000    -0.020
   H2O                    5.551e+01   9.999e-01     1.744         0        0
Cl               2.000e-03
   Cl-                    2.000e-03   1.903e-03    -2.699    -2.721    -0.022
H(0)             1.415e-25
   H2                     7.076e-26   7.079e-26   -25.150   -25.150         0
Na               2.000e-03
   Na+                    2.000e-03   1.904e-03    -2.699    -2.720    -0.021
   NaOH                   1.257e-10   1.258e-10    -9.901    -9.900         0
O(0)             0 
   O2                     0  0  -42.080   -42.080         0

------------------------------Saturation indices-------------------------------

	Phase               SI log IAP  log KT

	H2(g)           -22.00  -25.15   -3.15  H2
	H2O(g)           -1.51       0   1.51  H2O
	Halite           -7.02   -5.44    1.58  NaCl
	O2(g)           -39.12  -42.08   -2.96  O2

Time 0 Cell 12: x=              0	y=              1	z=              0
Using solution 12.

-----------------------------Solution composition------------------------------

	Elements           Molality       Moles

	Cl                1.000e-03   1.000e-03
	Na                1.000e-03   1.000e-03

----------------------------Description of solution----------------------------

                                       pH  =   7.000      Charge balance
                                       pe  =   4.000      Adjusted to redox equilibrium
                        Activity of water  =   1.000
                           Ionic strength  =   1.000e-03
                       Mass of water (kg)  =   1.000e+00
                 Total alkalinity (eq/kg)  =   3.658e-10
                    Total carbon (mol/kg)  =   0 
                       Total CO2 (mol/kg)  =   0 
                      Temperature (deg C)  =  25.000
                  Electrical balance (eq)  =  -3.658e-10
 Percent error, 100*(Cat-|An|)/(Cat+|An|)  =      0
                               Iterations  =   0
                                  Total H  = 1.110124e+02
                                  Total O  = 5.550622e+01

----------------------------Distribution of species----------------------------

                                                   Log       Log         Log 
   Species                 Molality    Activity  Molality  Activity     Gamma

   OH-                    1.038e-07   1.001e-07    -6.984    -7.000    -0.016
   H+                     1.034e-07   1.000e-07    -6.985    -7.000    -0.015
   H2O                    5.551e+01   1.000e+00     1.744         0        0
Cl               1.000e-03
   Cl-                    1.000e-03   9.649e-04    -3.000    -3.016    -0.016
H(0)             1.416e-25
   H2                     7.078e-26   7.079e-26   -25.150   -25.150         0
Na               1.000e-03
   Na+                    1.000e-03   9.652e-04    -3.000    -3.015    -0.015
   NaOH                   6.375e-11   6.377e-11   -10.196   -10.195         0
O(0)             0 
   O2                     0  0  -42.080   -42.080         0

------------------------------Saturation indices-------------------------------

	Phase               SI log IAP  log KT

	H2(g)           -22.00  -25.15   -3.15  H2
	H2O(g)           -1.51       0   1.51  H2O
	Halite           -7.61   -6.03    1.58  NaCl
	O2(g)           -39.12  -42.08   -2.96  O2

Time 0 Cell 13: x=              1	y=              1	z=              0
Using solution 13.

-----------------------------Solution composition------------------------------

	Elements           Molality       Moles

	Cl                1.100e-03   1.100e-03
	Na                1.100e-03   1.100e-03

----------------------------Description of solution----------------------------

                                       pH  =   7.000      Charge balance
                                       pe  =  -1.398      Adjusted to redox equilibrium
                        Activity of water  =   1.000
                           Ionic strength  =   1.100e-03
                       Mass of water (kg)  =   1.000e+00
                 Total alkalinity (eq/kg)  =   3.898e-10
                    Total carbon (mol/kg)  =   0 
                       Total CO2 (mol/kg)  =   0 
                      Temperature (deg C)  =  25.000
                  Electrical balance (eq)  =  -3.898e-10
 Percent error, 100*(Cat-|An|)/(Cat+|An|)  =      0
                               Iterations  =  13
                                  Total H  = 1.110124e+02
                                  Total O  = 5.550622e+01

----------------------------Distribution of species----------------------------

                                                   Log       Log         Log 
   Species                 Molality    Activity  Molality  Activity     Gamma

   OH-                    1.039e-07   1.001e-07    -6.983    -7.000    -0.016
   H+                     1.036e-07   1.000e-07    -6.985    -7.000    -0.015
   H2O                    5.551e+01   1.000e+00     1.744         0        0
Cl               1.100e-03
   Cl-                    1.100e-03   1.060e-03    -2.959    -2.975    -0.016
H(0)             8.833e-15
   H2                     4.416e-15   4.417e-15   -14.355   -14.355         0
Na               1.100e-03
   Na+                    1.100e-03   1.060e-03    -2.959    -2.975    -0.016
   NaOH                   7.001e-11   7.003e-11   -10.155   -10.155         0
O(0)             0 
   O2                     0  0  -63.670   -63.670         0

------------------------------Saturation indices-------------------------------

	Phase               SI log IAP  log KT

	H2(g)           -11.20  -14.35   -3.15  H2
	H2O(g)           -1.51       0   1.51  H2O
	Halite           -7.53   -5.95    1.58  NaCl
	O2(g)           -60.71  -63.67   -2.96  O2

Time 0 Cell 14: x=              2	y=              1	z=              0
Using solution 14.

-----------------------------Solution composition------------------------------

	Elements           Molality       Moles

	Cl                1.200e-03   1.200e-03
	Na                1.200e-03   1.200e-03

----------------------------Description of solution----------------------------

                                       pH  =   7.000      Charge balance
                                       pe  =  10.886      Adjusted to redox equilibrium
                        Activity of water  =   1.000
                           Ionic strength  =   1.200e-03
                       Mass of water (kg)  =   1.000e+00
                 Total alkalinity (eq/kg)  =   4.137e-10
                    Total carbon (mol/kg)  =   0 
                       Total CO2 (mol/kg)  =   0 
                      Temperature (deg C)  =  25.000
                  Electrical balance (eq)  =  -4.137e-10
 Percent error, 100*(Cat-|An|)/(Cat+|An|)  =      0
                               Iterations  =  12
                                  Total H  = 1.110124e+02
                                  Total O  = 5.550622e+01

----------------------------Distribution of species----------------------------

                                                   Log       Log         Log 
   Species                 Molality    Activity  Molality  Activity     Gamma

   OH-                    1.041e-07   1.001e-07    -6.983    -7.000    -0.017
   H+                     1.038e-07   1.000e-07    -6.984    -7.000    -0.016
   H2O                    5.551e+01   1.000e+00     1.744         0        0
Cl               1.200e-03
   Cl-                    1.200e-03   1.154e-03    -2.921    -2.938    -0.017
H(0)             2.390e-39
   H2                     1.195e-39   1.196e-39   -38.923   -38.922         0
Na               1.200e-03
   Na+                    1.200e-03   1.155e-03    -2.921    -2.938    -0.017
   NaOH                   7.625e-11   7.627e-11   -10.118   -10.118         0
O(0)             5.831e-15
   O2                     2.915e-15   2.916e-15   -14.535   -14.535         0

------------------------------Saturation indices-------------------------------

	Phase               SI log IAP  log KT

	H2(g)           -35.77  -38.92   -3.15  H2
	H2O(g)           -1.51       0   1.51  H2O
	Halite           -7.46   -5.88    1.58  NaCl
	O2(g)           -11.58  -14.54   -2.96  O2

Time 0 Cell 15: x=              3	y=              1	z=              0
Using solution 15.

-----------------------------Solution composition------------------------------

	Elements           Molality       Moles

	Cl                1.300e-03   1.300e-03
	Na                1.300e-03   1.300e-03

----------------------------Description of solution----------------------------

                                       pH  =   7.000      Charge balance
                                       pe  =  -0.999      Adjusted to redox equilibrium
                        Activity of water  =   1.000
                           Ionic strength  =   1.300e-03
                       Mass of water (kg)  =   1.000e+00
                 Total alkalinity (eq/kg)  =   4.377e-10
                    Total carbon (mol/kg)  =   0 
                       Total CO2 (mol/kg)  =   0 
                      Temperature (deg C)  =  25.000
                  Electrical balance (eq)  =  -4.377e-10
 Percent error, 100*(Cat-|An|)/(Cat+|An|)  =      0
                               Iterations  =  11
                                  Total H  = 1.110124e+02
                                  Total O  = 5.550622e+01

----------------------------Distribution of species----------------------------

                                                   Log       Log         Log 
   Species                 Molality    Activity  Molality  Activity     Gamma

   OH-                    1.043e-07   1.001e-07    -6.982    -7.000    -0.018
   H+                     1.039e-07   1.000e-07    -6.983    -7.000    -0.017
   H2O                    5.551e+01   1.000e+00     1.744         0        0
Cl               1.300e-03
   Cl-                    1.300e-03   1.248e-03    -2.886    -2.904    -0.018
H(0)             1.411e-15
   H2                     7.054e-16   7.056e-16   -15.152   -15.151         0
Na               1.300e-03
   Na+                    1.300e-03   1.249e-03    -2.886    -2.903    -0.017
   NaOH                   8.248e-11   8.251e-11   -10.084   -10.084         0
O(0)             0 
   O2                     0  0  -62.077   -62.077         0

------------------------------Saturation indices-------------------------------

	Phase               SI log IAP  log KT

	H2(g)           -12.00  -15.15   -3.15  H2
	H2O(g)           -1.51       0   1.51  H2O
	Halite           -7.39   -5.81    1.58  NaCl
	O2(g)           -59.12  -62.08   -2.96  O2

Time 0 Cell 16: x=              4	y=              1	z=              0
Using solution 16.

-----------------------------Solution composition------------------------------

	Elements           Molality       Moles

	Cl                1.400e-03   1.400e-03
	Na                1.400e-03   1.400e-03

----------------------------Description of solution----------------------------

                                       pH  =   7.000      Charge balance
                                       pe  =  -1.265      Adjusted to redox equilibrium
                        Activity of water  =   1.000
                           Ionic strength  =   1.400e-03
                       Mass of water (kg)  =   1.000e+00
                 Total alkalinity (eq/kg)  =   4.617e-10
                    Total carbon (mol/kg)  =   0 
                       Total CO2 (mol/kg)  =   0 
                      Temperature (deg C)  =  25.000
                  Electrical balance (eq)  =  -4.617e-10
 Percent error, 100*(Cat-|An|)/(Cat+|An|)  =      0
                               Iterations  =  10
                                  Total H  = 1.110124e+02
                                  Total O  = 5.550622e+01

----------------------------Distribution of species----------------------------

                                                   Log       Log         Log 
   Species                 Molality    Activity  Molality  Activity     Gamma

   OH-                    1.044e-07   1.001e-07    -6.981    -7.000    -0.018
   H+                     1.040e-07   1.000e-07    -6.983    -7.000    -0.017
   H2O                    5.551e+01   1.000e+00     1.744         0        0
Cl               1.400e-03
   Cl-                    1.400e-03   1.342e-03    -2.854    -2.872    -0.018
H(0)             4.806e-15
   H2                     2.403e-15   2.404e-15   -14.619   -14.619         0
Na               1.400e-03
   Na+                    1.400e-03   1.343e-03    -2.854    -2.872    -0.018
   NaOH                   8.870e-11   8.872e-11   -10.052   -10.052         0
O(0)             0 
   O2                     0  0  -63.142   -63.142         0

------------------------------Saturation indices-------------------------------

	Phase               SI log IAP  log KT

	H2(g)           -11.47  -14.62   -3.15  H2
	H2O(g)           -1.51       0   1.51  H2O
	Halite           -7.33   -5.74    1.58  NaCl
	O2(g)           -60.18  -63.14   -2.96  O2

Time 0 Cell 17: x=              5	y=              1	z=              0
Using solution 17.

-----------------------------Solution composition------------------------------

	Elements           Molality       Moles

	Cl                1.500e-03   1.500e-03
	Na                1.500e-03   1.500e-03

----------------------------Description of solution----------------------------

                                       pH  =   7.000      Charge balance
                                       pe  =  -1.397      Adjusted to redox equilibrium
                        Activity of water  =   1.000
                           Ionic strength  =   1.500e-03
                       Mass of water (kg)  =   1.000e+00
                 Total alkalinity (eq/kg)  =   4.857e-10
                    Total carbon (mol/kg)  =   0 
                       Total CO2 (mol/kg)  =   0 
                      Temperature (deg C)  =  25.000
                  Electrical balance (eq)  =  -4.857e-10
 Percent error, 100*(Cat-|An|)/(Cat+|An|)  =      0
                               Iterations  =  10
                                  Total H  = 1.110124e+02
                                  Total O  = 5.550622e+01

----------------------------Distribution of species----------------------------

                                                   Log       Log         Log 
   Species                 Molality    Activity  Molality  Activity     Gamma

   OH-                    1.046e-07   1.001e-07    -6.981    -7.000    -0.019
   H+                     1.042e-07   1.000e-07    -6.982    -7.000    -0.018
   H2O                    5.551e+01   9.999e-01     1.744         0        0
Cl               1.500e-03
   Cl-                    1.500e-03   1.436e-03    -2.824    -2.843    -0.019
H(0)             8.807e-15
   H2                     4.403e-15   4.405e-15   -14.356   -14.356         0
Na               1.500e-03
   Na+                    1.500e-03   1.437e-03    -2.824    -2.843    -0.019
   NaOH                   9.490e-11   9.493e-11   -10.023   -10.023         0
O(0)             0 
   O2                     0  0  -63.668   -63.668         0

------------------------------Saturation indices-------------------------------

	Phase               SI log IAP  log KT

	H2(g)           -11.21  -14.36   -3.15  H2
	H2O(g)           -1.51       0   1.51  H2O
	Halite           -7.27   -5.69    1.58  NaCl
	O2(g)           -60.71  -63.67   -2.96  O2

Time 0 Cell 18: x=              6	y=              1	z=              0
Using solution 18.

-----------------------------Solution composition------------------------------

	Elements           Molality       Moles

	Cl                1.600e-03   1.600e-03
	Na                1.600e-03   1.600e-03

----------------------------Description of solution----------------------------

                                       pH  =   7.000      Charge balance
                                       pe  =  11.452      Adjusted to redox equilibrium
                        Activity of water  =   1.000
                           Ionic strength  =   1.600e-03
                       Mass of water (kg)  =   1.000e+00
                 Total alkalinity (eq/kg)  =   5.097e-10
                    Total carbon (mol/kg)  =   0 
                       Total CO2 (mol/kg)  =   0 
                      Temperature (deg C)  =  25.000
                  Electrical balance (eq)  =  -5.097e-10
 Percent error, 100*(Cat-|An|)/(Cat+|An|)  =      0
                               Iterations  =   9
                                  Total H  = 1.110124e+02
                                  Total O  = 5.550622e+01

----------------------------Distribution of species----------------------------

                                                   Log       Log         Log 
   Species                 Molality    Activity  Molality  Activity     Gamma

   OH-                    1.047e-07   1.001e-07    -6.980    -7.000    -0.019
   H+                     1.043e-07   1.000e-07    -6.982    -7.000    -0.018
   H2O                    5.551e+01   9.999e-01     1.744         0        0
Cl               1.600e-03
   Cl-                    1.600e-03   1.530e-03    -2.796    -2.815    -0.019
H(0)             0 
   H2                     0  0  -40.055   -40.055         0
Na               1.600e-03
   Na+                    1.600e-03   1.531e-03    -2.796    -2.815    -0.019
   NaOH                   1.011e-10   1.011e-10    -9.995    -9.995         0
O(0)             1.073e-12
   O2                     5.363e-13   5.365e-13   -12.271   -12.270         0

------------------------------Saturation indices-------------------------------

	Phase               SI log IAP  log KT

	H2(g)           -36.90  -40.05   -3.15  H2
	H2O(g)           -1.51       0   1.51  H2O
	Halite           -7.21   -5.63    1.58  NaCl
	O2(g)            -9.31  -12.27   -2.96  O2

Time 0 Cell 19: x=              7	y=              1	z=              0
Using solution 19.

-----------------------------Solution composition------------------------------

	Elements           Molality       Moles

	Cl                1.700e-03   1.700e-03
	Na                1.700e-03   1.700e-03

----------------------------Description of solution----------------------------

                                       pH  =   7.000      Charge balance
                                       pe  =  -0.870      Adjusted to redox equilibrium
                        Activity of water  =   1.000
                           Ionic strength  =   1.700e-03
                       Mass of water (kg)  =   1.000e+00
                 Total alkalinity (eq/kg)  =   5.336e-10
                    Total carbon (mol/kg)  =   0 
                       Total CO2 (mol/kg)  =   0 
                      Temperature (deg C)  =  25.000
                  Electrical balance (eq)  =  -5.336e-10
 Percent error, 100*(Cat-|An|)/(Cat+|An|)  =      0
                               Iterations  =   9
                                  Total H  = 1.110124e+02
                                  Total O  = 5.550622e+01

----------------------------Distribution of species----------------------------

                                                   Log       Log         Log 
   Species                 Molality    Activity  Molality  Activity     Gamma

   OH-                    1.048e-07   1.001e-07    -6.980    -7.000    -0.020
   H+                     1.044e-07   1.000e-07    -6.981    -7.000    -0.019
   H2O                    5.551e+01   9.999e-01     1.744         0        0
Cl               1.700e-03
   Cl-                    1.700e-03   1.623e-03    -2.770    -2.790    -0.020
H(0)             7.780e-16
   H2                     3.890e-16   3.892e-16   -15.410   -15.410         0
Na               1.700e-03
   Na+                    1.700e-03   1.624e-03    -2.770    -2.789    -0.020
   NaOH                   1.073e-10   1.073e-10    -9.970    -9.969         0
O(0)             0 
   O2                     0  0  -61.561   -61.560         0

------------------------------Saturation indices-------------------------------

	Phase               SI log IAP  log KT

	H2(g)           -12.26  -15.41   -3.15  H2
	H2O(g)           -1.51       0   1.51  H2O
	Halite           -7.16   -5.58    1.58  NaCl
	O2(g)           -58.60  -61.56   -2.96  O2

Time 0 Cell 20: x=              8	y=              1	z=              0
Using solution 20.

-----------------------------Solution composition------------------------------

	Elements           Molality       Moles

	Cl                1.800e-03   1.800e-03
	Na                1.800e-03   1.800e-03

----------------------------Description of solution----------------------------

                                       pH  =   7.000      Charge balance
                                       pe  =  11.440      Adjusted to redox equilibrium
                        Activity of water  =   1.000
                           Ionic strength  =   1.800e-03
                       Mass of water (kg)  =   1.000e+00
                 Total alkalinity (eq/kg)  =   5.576e-10
                    Total carbon (mol/kg)  =   0 
                       Total CO2 (mol/kg)  =   0 
                      Temperature (deg C)  =  25.000
                  Electrical balance (eq)  =  -5.576e-10
 Percent error, 100*(Cat-|An|)/(Cat+|An|)  =      0
                               Iterations  =   9
                                  Total H  = 1.110124e+02
                                  Total O  = 5.550622e+01

----------------------------Distribution of species----------------------------

                                                   Log       Log         Log 
   Species                 Molality    Activity  Molality  Activity     Gamma

   OH-                    1.050e-07   1.001e-07    -6.979    -7.000    -0.021
   H+                     1.045e-07   1.000e-07    -6.981    -7.000    -0.019
   H2O                    5.551e+01   9.999e-01     1.744         0        0
Cl               1.800e-03
   Cl-                    1.800e-03   1.717e-03    -2.745    -2.765    -0.021
H(0)             0 
   H2                     0  0  -40.031   -40.031         0
Na               1.800e-03
   Na+                    1.800e-03   1.718e-03    -2.745    -2.765    -0.020
   NaOH                   1.134e-10   1.135e-10    -9.945    -9.945         0
O(0)             9.607e-13
   O2                     4.804e-13   4.806e-13   -12.318   -12.318         0

------------------------------Saturation indices-------------------------------

	Phase               SI log IAP  log KT

	H2(g)           -36.88  -40.03   -3.15  H2
	H2O(g)           -1.51       0   1.51  H2O
	Halite           -7.11   -5.53    1.58  NaCl
	O2(g)            -9.36  -12.32   -2.96  O2

Time 0 Cell 21: x=              9	y=              1	z=              0
Using solution 21.

-----------------------------Solution composition------------------------------

	Elements           Molality       Moles

	Cl                1.900e-03   1.900e-03
	Na                1.900e-03   1.900e-03

----------------------------Description of solution----------------------------

                                       pH  =   7.000      Charge balance
                                       pe  =  11.464      Adjusted to redox equilibrium
                        Activity of water  =   1.000
                           Ionic strength  =   1.900e-03
                       Mass of water (kg)  =   1.000e+00
                 Total alkalinity (eq/kg)  =   5.816e-10
                    Total carbon (mol/kg)  =   0 
                       Total CO2 (mol/kg)  =   0 
                      Temperature (deg C)  =  25.000
                  Electrical balance (eq)  =  -5.816e-10
 Percent error, 100*(Cat-|An|)/(Cat+|An|)  =      0
                               Iterations  =   9
                                  Total H  = 1.110124e+02
                                  Total O  = 5.550622e+01

----------------------------Distribution of species----------------------------

                                                   Log       Log         Log 
   Species                 Molality    Activity  Molality  Activity     Gamma

   OH-                    1.051e-07   1.001e-07    -6.978    -7.000    -0.021
   H+                     1.046e-07   1.000e-07    -6.980    -7.000    -0.020
   H2O                    5.551e+01   9.999e-01     1.744         0        0
Cl               1.900e-03
   Cl-                    1.900e-03   1.810e-03    -2.721    -2.742    -0.021
H(0)             0 
   H2                     0  0  -40.078   -40.078         0
Na               1.900e-03
   Na+                    1.900e-03   1.811e-03    -2.721    -2.742    -0.021
   NaOH                   1.196e-10   1.196e-10    -9.922    -9.922         0
O(0)             1.192e-12
   O2                     5.962e-13   5.965e-13   -12.225   -12.224         0

------------------------------Saturation indices-------------------------------

	Phase               SI log IAP  log KT

	H2(g)           -36.93  -40.08   -3.15  H2
	H2O(g)           -1.51       0   1.51  H2O
	Halite           -7.07   -5.48    1.58  NaCl
	O2(g)            -9.26  -12.22   -2.96  O2

Time 0 Cell 22: x=             10	y=              1	z=              0
Using solution 22.

-----------------------------Solution composition------------------------------

	Elements           Molality       Moles

	Cl                2.000e-03   2.000e-03
	Na                2.000e-03   2.000e-03

----------------------------Description of solution----------------------------

                                       pH  =   7.000      Charge balance
                                       pe  =   4.000      Adjusted to redox equilibrium
                        Activity of water  =   1.000
                           Ionic strength  =   2.000e-03
                       Mass of water (kg)  =   1.000e+00
                 Total alkalinity (eq/kg)  =   6.056e-10
                    Total carbon (mol/kg)  =   0 
                       Total CO2 (mol/kg)  =   0 
                      Temperature (deg C)  =  25.000
                  Electrical balance (eq)  =  -6.056e-10
 Percent error, 100*(Cat-|An|)/(Cat+|An|)  =      0
                               Iterations  =   0
                                  Total H  = 1.110124e+02
                                  Total O  = 5.550622e+01

----------------------------Distribution of species----------------------------

                                                   Log       Log         Log 
   Species                 Molality    Activity  Molality  Activity     Gamma

   OH-                    1.052e-07   1.001e-07    -6.978    -7.000    -0.022
   H+                     1.047e-07   1.000e-07    -6.980    -7.000    -0.020
   H2O                    5.551e+01   9.999e-01     1.744         0        0
Cl               2.000e-03
   Cl-                    2.000e-03   1.903e-03    -2.699    -2.721    -0.022
H(0)             1.415e-25
   H2                     7.076e-26   7.079e-26   -25.150   -25.150         0
Na               2.000e-03
   Na+                    2.000e-03   1.904e-03    -2.699    -2.720    -0.021
   NaOH                   1.257e-10   1.258e-10    -9.901    -9.900         0
O(0)             0 
   O2                     0  0  -42.080   -42.080         0

------------------------------Saturation indices-------------------------------

	Phase               SI log IAP  log KT

	H2(g)           -22.00  -25.15   -3.15  H2
	H2O(g)           -1.51       0   1.51  H2O
	Halite           -7.02   -5.44    1.58  NaCl
	O2(g)           -39.12  -42.08   -2.96  O2

Time 0 Cell 23: x=              0	y=              2	z=              0
Using solution 23.

-----------------------------Solution composition------------------------------

	Elements           Molality       Moles

	Cl                1.000e-03   1.000e-03
	Na                1.000e-03   1.000e-03

----------------------------Description of solution----------------------------

                                       pH  =   7.000      Charge balance
                                       pe  =   4.000      Adjusted to redox equilibrium
                        Activity of water  =   1.000
                           Ionic strength  =   1.000e-03
                       Mass of water (kg)  =   1.000e+00
                 Total alkalinity (eq/kg)  =   3.658e-10
                    Total carbon (mol/kg)  =   0 
                       Total CO2 (mol/kg)  =   0 
                      Temperature (deg C)  =  25.000
                  Electrical balance (eq)  =  -3.658e-10
 Percent error, 100*(Cat-|An|)/(Cat+|An|)  =      0
                               Iterations  =   0
                                  Total H  = 1.110124e+02
                                  Total O  = 5.550622e+01

----------------------------Distribution of species----------------------------

                                                   Log       Log         Log 
   Species                 Molality    Activity  Molality  Activity     Gamma

   OH-                    1.038e-07   1.001e-07    -6.984    -7.000    -0.016
   H+                     1.034e-07   1.000e-07    -6.985    -7.000    -0.015
   H2O                    5.551e+01   1.000e+00     1.744         0        0
Cl               1.000e-03
   Cl-                    1.000e-03   9.649e-04    -3.000    -3.016    -0.016
H(0)             1.416e-25
   H2                     7.078e-26   7.079e-26   -25.150   -25.150         0
Na               1.000e-03
   Na+                    1.000e-03   9.652e-04    -3.000    -3.015    -0.015
   NaOH                   6.375e-11   6.377e-11   -10.196   -10.195         0
O(0)             0 
   O2                     0  0  -42.080   -42.080         0

------------------------------Saturation indices-------------------------------

	Phase               SI log IAP  log KT

	H2(g)           -22.00  -25.15   -3.15  H2
	H2O(g)           -1.51       0   1.51  H2O
	Halite           -7.61   -6.03    1.58  NaCl
	O2(g)           -39.12  -42.08   -2.96  O2

Time 0 Cell 24: x=              1	y=              2	z=              0
Using solution 24.

-----------------------------Solution composition------------------------------

	Elements           Molality       Moles

	Cl                1.100e-03   1.100e-03
	Na                1.100e-03   1.100e-03

----------------------------Description of solution----------------------------

                                       pH  =   7.000      Charge balance
                                       pe  =  -1.398      Adjusted to redox equilibrium
                        Activity of water  =   1.000
                           Ionic strength  =   1.100e-03
                       Mass of water (kg)  =   1.000e+00
                 Total alkalinity (eq/kg)  =   3.898e-10
                    Total carbon (mol/kg)  =   0 
                       Total CO2 (mol/kg)  =   0 
                      Temperature (deg C)  =  25.000
                  Electrical balance (eq)  =  -3.898e-10
 Percent error, 100*(Cat-|An|)/(Cat+|An|)  =      0
                               Iterations  =  13
                                  Total H  = 1.110124e+02
                                  Total O  = 5.550622e+01

----------------------------Distribution of species----------------------------

                                                   Log       Log         Log 
   Species                 Molality    Activity  Molality  Activity     Gamma

   OH-                    1.039e-07   1.001e-07    -6.983    -7.000    -0.016
   H+                     1.036e-07   1.000e-07    -6.985    -7.000    -0.015
   H2O                    5.551e+01   1.000e+00     1.744         0        0
Cl               1.100e-03
   Cl-                    1.100e-03   1.060e-03    -2.959    -2.975    -0.016
H(0)             8.833e-15
   H2                     4.416e-15   4.417e-15   -14.355   -14.355         0
Na               1.100e-03
   Na+                    1.100e-03   1.060e-03    -2.959    -2.975    -0.016
   NaOH                   7.001e-11   7.003e-11   -10.155   -10.155         0
O(0)             0 
   O2                     0  0  -63.670   -63.670         0

------------------------------Saturation indices-------------------------------

	Phase               SI log IAP  log KT

	H2(g)           -11.20  -14.35   -3.15  H2
	H2O(g)           -1.51       0   1.51  H2O
	Halite           -7.53   -5.95    1.58  NaCl
	O2(g)           -60.71  -63.67   -2.96  O2

Time 0 Cell 25: x=              2	y=              2	z=              0
Using solution 25.

-----------------------------Solution composition------------------------------

	Elements           Molality       Moles

	Cl                1.200e-03   1.200e-03
	Na                1.200e-03   1.200e-03

----------------------------Description of solution----------------------------

                                       pH  =   7.000      Charge balance
                                       pe  =  10.886      Adjusted to redox equilibrium
                        Activity of water  =   1.000
                           Ionic strength  =   1.200e-03
                       Mass of water (kg)  =   1.000e+00
                 Total alkalinity (eq/kg)  =   4.137e-10
                    Total carbon (mol/kg)  =   0 
                       Total CO2 (mol/kg)  =   0 
                      Temperature (deg C)  =  25.000
                  Electrical balance (eq)  =  -4.137e-10
 Percent error, 100*(Cat-|An|)/(Cat+|An|)  =      0
                               Iterations  =  12
                                  Total H  = 1.110124e+02
                                  Total O  = 5.550622e+01

----------------------------Distribution of species----------------------------

                                                   Log       Log         Log 
   Species                 Molality    Activity  Molality  Activity     Gamma

   OH-                    1.041e-07   1.001e-07    -6.983    -7.000    -0.017
   H+                     1.038e-07   1.000e-07    -6.984    -7.000    -0.016
   H2O                    5.551e+01   1.000e+00     1.744         0        0
Cl               1.200e-03
   Cl-                    1.200e-03   1.154e-03    -2.921    -2.938    -0.017
H(0)             2.390e-39
   H2                     1.195e-39   1.196e-39   -38.923   -38.922         0
Na               1.200e-03
   Na+                    1.200e-03   1.155e-03    -2.921    -2.938    -0.017
   NaOH                   7.625e-11   7.627e-11   -10.118   -10.118         0
O(0)             5.831e-15
   O2                     2.915e-15   2.916e-15   -14.535   -14.535         0

------------------------------Saturation indices-------------------------------

	Phase               SI log IAP  log KT

	H2(g)           -35.77  -38.92   -3.15  H2
	H2O(g)           -1.51       0   1.51  H2O
	Halite           -7.46   -5.88    1.58  NaCl
	O2(g)           -11.58  -14.54   -2.96  O2

Time 0 Cell 26: x=              3	y=              2	z=              0
Using solution 26.

-----------------------------Solution composition------------------------------

	Elements           Molality       Moles

	Cl                1.300e-03   1.300e-03
	Na                1.300e-03   1.300e-03

----------------------------Description of solution----------------------------

                                       pH  =   7.000      Charge balance
                                       pe  =  -0.999      Adjusted to redox equilibrium
                        Activity of water  =   1.000
                           Ionic strength  =   1.300e-03
                       Mass of water (kg)  =   1.000e+00
                 Total alkalinity (eq/kg)  =   4.377e-10
                    Total carbon (mol/kg)  =   0 
                       Total CO2 (mol/kg)  =   0 
                      Temperature (deg C)  =  25.000
                  Electrical balance (eq)  =  -4.377e-10
 Percent error, 100*(Cat-|An|)/(Cat+|An|)  =      0
                               Iterations  =  11
                                  Total H  = 1.110124e+02
                                  Total O  = 5.550622e+01

----------------------------Distribution of species----------------------------

                                                   Log       Log         Log 
   Species                 Molality    Activity  Molality  Activity     Gamma

   OH-                    1.043e-07   1.001e-07    -6.982    -7.000    -0.018
   H+                     1.039e-07   1.000e-07    -6.983    -7.000    -0.017
   H2O                    5.551e+01   1.000e+00     1.744         0        0
Cl               1.300e-03
   Cl-                    1.300e-03   1.248e-03    -2.886    -2.904    -0.018
H(0)             1.411e-15
   H2                     7.054e-16   7.056e-16   -15.152   -15.151         0
Na               1.300e-03
   Na+                    1.300e-03   1.249e-03    -2.886    -2.903    -0.017
   NaOH                   8.248e-11   8.251e-11   -10.084   -10.084         0
O(0)             0 
   O2                     0  0  -62.077   -62.077         0

------------------------------Saturation indices-------------------------------

	Phase               SI log IAP  log KT

	H2(g)           -12.00  -15.15   -3.15  H2
	H2O(g)           -1.51       0   1.51  H2O
	Halite           -7.39   -5.81    1.58  NaCl
	O2(g)           -59.12  -62.08   -2.96  O2

Time 0 Cell 27: x=              4	y=              2	z=              0
Using solution 27.

-----------------------------Solution composition------------------------------

	Elements           Molality       Moles

	Cl                1.400e-03   1.400e-03
	Na                1.400e-03   1.400e-03

----------------------------Description of solution----------------------------

                                       pH  =   7.000      Charge balance
                                       pe  =  -1.265      Adjusted to redox equilibrium
                        Activity of water  =   1.000
                           Ionic strength  =   1.400e-03
                       Mass of water (kg)  =   1.000e+00
                 Total alkalinity (eq/kg)  =   4.617e-10
                    Total carbon (mol/kg)  =   0 
                       Total CO2 (mol/kg)  =   0 
                      Temperature (deg C)  =  25.000
                  Electrical balance (eq)  =  -4.617e-10
 Percent error, 100*(Cat-|An|)/(Cat+|An|)  =      0
                               Iterations  =  10
                                  Total H  = 1.110124e+02
                                  Total O  = 5.550622e+01

----------------------------Distribution of species----------------------------

                                                   Log       Log         Log 
   Species                 Molality    Activity  Molality  Activity     Gamma

   OH-                    1.044e-07   1.001e-07    -6.981    -7.000    -0.018
   H+                     1.040e-07   1.000e-07    -6.983    -7.000    -0.017
   H2O                    5.551e+01   1.000e+00     1.744         0        0
Cl               1.400e-03
   Cl-                    1.400e-03   1.342e-03    -2.854    -2.872    -0.018
H(0)             4.806e-15
   H2                     2.403e-15   2.404e-15   -14.619   -14.619         0
Na               1.400e-03
   Na+                    1.400e-03   1.343e-03    -2.854    -2.872    -0.018
   NaOH                   8.870e-11   8.872e-11   -10.052   -10.052         0
O(0)             0 
   O2                     0  0  -63.142   -63.142         0

------------------------------Saturation indices-------------------------------

	Phase               SI log IAP  log KT

	H2(g)           -11.47  -14.62   -3.15  H2
	H2O(g)           -1.51       0   1.51  H2O
	Halite           -7.33   -5.74    1.58  NaCl
	O2(g)           -60.18  -63.14   -2.96  O2

Time 0 Cell 28: x=              5	y=              2	z=              0
Using solution 28.

-----------------------------Solution composition------------------------------

	Elements           Molality       Moles

	Cl                1.500e-03   1.500e-03
	Na                1.500e-03   1.500e-03

----------------------------Description of solution----------------------------

                                       pH  =   7.000      Charge balance
                                       pe  =  -1.397      Adjusted to redox equilibrium
                        Activity of water  =   1.000
                           Ionic strength  =   1.500e-03
                       Mass of water (kg)  =   1.000e+00
                 Total alkalinity (eq/kg)  =   4.857e-10
                    Total carbon (mol/kg)  =   0 
                       Total CO2 (mol/kg)  =   0 
                      Temperature (deg C)  =  25.000
                  Electrical balance (eq)  =  -4.857e-10
 Percent error, 100*(Cat-|An|)/(Cat+|An|)  =      0
                               Iterations  =  10
                                  Total H  = 1.110124e+02
                                  Total O  = 5.550622e+01

----------------------------Distribution of species----------------------------

                                                   Log       Log         Log 
   Species                 Molality    Activity  Molality  Activity     Gamma

   OH-                    1.046e-07   1.001e-07    -6.981    -7.000    -0.019
   H+                     1.042e-07   1.000e-07    -6.982    -7.000    -0.018
   H2O                    5.551e+01   9.999e-01     1.744         0        0
Cl               1.500e-03
   Cl-                    1.500e-03   1.436e-03    -2.824    -2.843    -0.019
H(0)             8.807e-15
   H2                     4.403e-15   4.405e-15   -14.356   -14.356         0
Na               1.500e-03
   Na+                    1.500e-03   1.437e-03    -2.824    -2.843    -0.019
   NaOH                   9.490e-11   9.493e-11   -10.023   -10.023         0
O(0)             0 
   O2                     0  0  -63.668   -63.668         0

------------------------------Saturation indices-------------------------------

	Phase               SI log IAP  log KT

	H2(g)           -11.21  -14.36   -3.15  H2
	H2O(g)           -1.51       0   1.51  H2O
	Halite           -7.27   -5.69    1.58  NaCl
	O2(g)           -60.71  -63.67   -2.96  O2

Time 0 Cell 29: x=              6	y=              2	z=              0
Using solution 29.

-----------------------------Solution composition------------------------------

	Elements           Molality       Moles

	Cl                1.600e-03   1.600e-03
	Na                1.600e-03   1.600e-03

----------------------------Description of solution----------------------------

                                       pH  =   7.000      Charge balance
                                       pe  =  11.452      Adjusted to redox equilibrium
                        Activity of water  =   1.000
                           Ionic strength  =   1.600e-03
                       Mass of water (kg)  =   1.000e+00
                 Total alkalinity (eq/kg)  =   5.097e-10
                    Total carbon (mol/kg)  =   0 
                       Total CO2 (mol/kg)  =   0 
                      Temperature (deg C)  =  25.000
                  Electrical balance (eq)  =  -5.097e-10
 Percent error, 100*(Cat-|An|)/(Cat+|An|)  =      0
                               Iterations  =   9
                                  Total H  = 1.110124e+02
                                  Total O  = 5.550622e+01

----------------------------Distribution of species----------------------------

                                                   Log       Log         Log 
   Species                 Molality    Activity  Molality  Activity     Gamma

   OH-                    1.047e-07   1.001e-07    -6.980    -7.000    -0.019
   H+                     1.043e-07   1.000e-07    -6.982    -7.000    -0.018
   H2O                    5.551e+01   9.999e-01     1.744         0        0
Cl               1.600e-03
   Cl-                    1.600e-03   1.530e-03    -2.796    -2.815    -0.019
H(0)             0 
   H2                     0  0  -40.055   -40.055         0
Na               1.600e-03
   Na+                    1.600e-03   1.531e-03    -2.796    -2.815    -0.019
   NaOH                   1.011e-10   1.011e-10    -9.995    -9.995         0
O(0)             1.073e-12
   O2                     5.363e-13   5.365e-13   -12.271   -12.270         0

------------------------------Saturation indices-------------------------------

	Phase               SI log IAP  log KT

	H2(g)           -36.90  -40.05   -3.15  H2
	H2O(g)           -1.51       0   1.51  H2O
	Halite           -7.21   -5.63    1.58  NaCl
	O2(g)            -9.31  -12.27   -2.96  O2

Time 0 Cell 30: x=              7	y=              2	z=              0
Using solution 30.

-----------------------------Solution composition------------------------------

	Elements           Molality       Moles

	Cl                1.700e-03   1.700e-03
	Na                1.700e-03   1.700e-03

----------------------------Description of solution----------------------------

                                       pH  =   7.000      Charge balance
                                       pe  =  -0.870      Adjusted to redox equilibrium
                        Activity of water  =   1.000
                           Ionic strength  =   1.700e-03
                       Mass of water (kg)  =   1.000e+00
                 Total alkalinity (eq/kg)  =   5.336e-10
                    Total carbon (mol/kg)  =   0 
                       Total CO2 (mol/kg)  =   0 
                      Temperature (deg C)  =  25.000
                  Electrical balance (eq)  =  -5.336e-10
 Percent error, 100*(Cat-|An|)/(Cat+|An|)  =      0
                               Iterations  =   9
                                  Total H  = 1.110124e+02
                                  Total O  = 5.550622e+01

----------------------------Distribution of species----------------------------

                                                   Log       Log         Log 
   Species                 Molality    Activity  Molality  Activity     Gamma

   OH-                    1.048e-07   1.001e-07    -6.980    -7.000    -0.020
   H+                     1.044e-07   1.000e-07    -6.981    -7.000    -0.019
   H2O                    5.551e+01   9.999e-01     1.744         0        0
Cl               1.700e-03
   Cl-                    1.700e-03   1.623e-03    -2.770    -2.790    -0.020
H(0)             7.780e-16
   H2                     3.890e-16   3.892e-16   -15.410   -15.410         0
Na               1.700e-03
   Na+                    1.700e-03   1.624e-03    -2.770    -2.789    -0.020
   NaOH                   1.073e-10   1.073e-10    -9.970    -9.969         0
O(0)             0 
   O2                     0  0  -61.561   -61.560         0

------------------------------Saturation indices-------------------------------

	Phase               SI log IAP  log KT

	H2(g)           -12.26  -15.41   -3.15  H2
	H2O(g)           -1.51       0   1.51  H2O
	Halite           -7.16   -5.58    1.58  NaCl
	O2(g)           -58.60  -61.56   -2.96  O2

Time 0 Cell 31: x=              8	y=              2	z=              0
Using solution 31.

-----------------------------Solution composition------------------------------

	Elements           Molality       Moles

	Cl                1.800e-03   1.800e-03
	Na                1.800e-03   1.800e-03

----------------------------Description of solution----------------------------

                                       pH  =   7.000      Charge balance
                                       pe  =  11.440      Adjusted to redox equilibrium
                        Activity of water  =   1.000
                           Ionic strength  =   1.800e-03
                       Mass of water (kg)  =   1.000e+00
                 Total alkalinity (eq/kg)  =   5.576e-10
                    Total carbon (mol/kg)  =   0 
                       Total CO2 (mol/kg)  =   0 
                      Temperature (deg C)  =  25.000
                  Electrical balance (eq)  =  -5.576e-10
 Percent error, 100*(Cat-|An|)/(Cat+|An|)  =      0
[...]
O(0)             8.035e-15
   O2                     4.017e-15   4.019e-15   -14.396   -14.396         0

------------------------------Saturation indices-------------------------------

	Phase               SI log IAP  log KT

	H2(g)           -35.84  -38.99   -3.15  H2
	H2O(g)           -1.51       0   1.51  H2O
	Halite           -7.46   -5.88    1.58  NaCl
	O2(g)           -11.44  -14.40   -2.96  O2

Time 0.5. Cell 114: x=              3	y=             10	z=              0
Using solution 114.

-----------------------------Solution composition------------------------------

	Elements           Molality       Moles

	Cl                1.295e-03   1.295e-03
	Na                1.295e-03   1.295e-03

----------------------------Description of solution----------------------------

                                       pH  =   7.000      Charge balance
                                       pe  =  -1.798      Adjusted to redox equilibrium
                        Activity of water  =   1.000
                           Ionic strength  =   1.295e-03
                       Mass of water (kg)  =   1.000e+00
                 Total alkalinity (eq/kg)  =   4.365e-10
                    Total carbon (mol/kg)  =   0 
                       Total CO2 (mol/kg)  =   0 
                      Temperature (deg C)  =  25.000
                  Electrical balance (eq)  =  -4.367e-10
 Percent error, 100*(Cat-|An|)/(Cat+|An|)  =      0
                               Iterations  =   2
                                  Total H  = 1.110124e+02
                                  Total O  = 5.550622e+01

----------------------------Distribution of species----------------------------

                                                   Log       Log         Log 
   Species                 Molality    Activity  Molality  Activity     Gamma

   OH-                    1.042e-07   1.001e-07    -6.982    -7.000    -0.018
   H+                     1.039e-07   1.000e-07    -6.983    -7.000    -0.017
   H2O                    5.551e+01   1.000e+00     1.744         0        0
Cl               1.295e-03
   Cl-                    1.295e-03   1.244e-03    -2.888    -2.905    -0.018
H(0)             5.594e-14
   H2                     2.797e-14   2.798e-14   -13.553   -13.553         0
Na               1.295e-03
   Na+                    1.295e-03   1.244e-03    -2.888    -2.905    -0.017
   NaOH                   8.217e-11   8.219e-11   -10.085   -10.085         0
O(0)             0 
   O2                     0  0  -65.274   -65.274         0

------------------------------Saturation indices-------------------------------

	Phase               SI log IAP  log KT

	H2(g)           -10.40  -13.55   -3.15  H2
	H2O(g)           -1.51       0   1.51  H2O
	Halite           -7.39   -5.81    1.58  NaCl
	O2(g)           -62.31  -65.27   -2.96  O2

Time 0.5. Cell 115: x=              4	y=             10	z=              0
Using solution 115.

-----------------------------Solution composition------------------------------

	Elements           Molality       Moles

	Cl                1.395e-03   1.395e-03
	Na                1.395e-03   1.395e-03

----------------------------Description of solution----------------------------

                                       pH  =   7.000      Charge balance
                                       pe  =  -1.555      Adjusted to redox equilibrium
                        Activity of water  =   1.000
                           Ionic strength  =   1.395e-03
                       Mass of water (kg)  =   1.000e+00
                 Total alkalinity (eq/kg)  =   4.605e-10
                    Total carbon (mol/kg)  =   0 
                       Total CO2 (mol/kg)  =   0 
                      Temperature (deg C)  =  25.000
                  Electrical balance (eq)  =  -4.607e-10
 Percent error, 100*(Cat-|An|)/(Cat+|An|)  =      0
                               Iterations  =   2
                                  Total H  = 1.110124e+02
                                  Total O  = 5.550622e+01

----------------------------Distribution of species----------------------------

                                                   Log       Log         Log 
   Species                 Molality    Activity  Molality  Activity     Gamma

   OH-                    1.044e-07   1.001e-07    -6.981    -7.000    -0.018
   H+                     1.040e-07   1.000e-07    -6.983    -7.000    -0.017
   H2O                    5.551e+01   1.000e+00     1.744         0        0
Cl               1.395e-03
   Cl-                    1.395e-03   1.338e-03    -2.855    -2.874    -0.018
H(0)             1.820e-14
   H2                     9.098e-15   9.100e-15   -14.041   -14.041         0
Na               1.395e-03
   Na+                    1.395e-03   1.338e-03    -2.855    -2.873    -0.018
   NaOH                   8.839e-11   8.841e-11   -10.054   -10.053         0
O(0)             0 
   O2                     0  0  -64.298   -64.298         0

------------------------------Saturation indices-------------------------------

	Phase               SI log IAP  log KT

	H2(g)           -10.89  -14.04   -3.15  H2
	H2O(g)           -1.51       0   1.51  H2O
	Halite           -7.33   -5.75    1.58  NaCl
	O2(g)           -61.34  -64.30   -2.96  O2

Time 0.5. Cell 116: x=              5	y=             10	z=              0
Using solution 116.

-----------------------------Solution composition------------------------------

	Elements           Molality       Moles

	Cl                1.495e-03   1.495e-03
	Na                1.495e-03   1.495e-03

----------------------------Description of solution----------------------------

                                       pH  =   7.000      Charge balance
                                       pe  =  -2.195      Adjusted to redox equilibrium
                        Activity of water  =   1.000
                           Ionic strength  =   1.495e-03
                       Mass of water (kg)  =   1.000e+00
                 Total alkalinity (eq/kg)  =   4.845e-10
                    Total carbon (mol/kg)  =   0 
                       Total CO2 (mol/kg)  =   0 
                      Temperature (deg C)  =  25.000
                  Electrical balance (eq)  =  -4.846e-10
 Percent error, 100*(Cat-|An|)/(Cat+|An|)  =      0
                               Iterations  =   2
                                  Total H  = 1.110124e+02
                                  Total O  = 5.550622e+01

----------------------------Distribution of species----------------------------

                                                   Log       Log         Log 
   Species                 Molality    Activity  Molality  Activity     Gamma

   OH-                    1.045e-07   1.001e-07    -6.981    -7.000    -0.019
   H+                     1.042e-07   1.000e-07    -6.982    -7.000    -0.018
   H2O                    5.551e+01   9.999e-01     1.744         0        0
Cl               1.495e-03
   Cl-                    1.495e-03   1.432e-03    -2.825    -2.844    -0.019
H(0)             3.468e-13
   H2                     1.734e-13   1.735e-13   -12.761   -12.761         0
Na               1.495e-03
   Na+                    1.495e-03   1.432e-03    -2.825    -2.844    -0.019
   NaOH                   9.459e-11   9.462e-11   -10.024   -10.024         0
O(0)             0 
   O2                     0  0  -66.859   -66.858         0

------------------------------Saturation indices-------------------------------

	Phase               SI log IAP  log KT

	H2(g)            -9.61  -12.76   -3.15  H2
	H2O(g)           -1.51       0   1.51  H2O
	Halite           -7.27   -5.69    1.58  NaCl
	O2(g)           -63.90  -66.86   -2.96  O2

Time 0.5. Cell 117: x=              6	y=             10	z=              0
Using solution 117.

-----------------------------Solution composition------------------------------

	Elements           Molality       Moles

	Cl                1.595e-03   1.595e-03
	Na                1.595e-03   1.595e-03

----------------------------Description of solution----------------------------

                                       pH  =   7.000      Charge balance
                                       pe  =  11.451      Adjusted to redox equilibrium
                        Activity of water  =   1.000
                           Ionic strength  =   1.595e-03
                       Mass of water (kg)  =   1.000e+00
                 Total alkalinity (eq/kg)  =   5.085e-10
                    Total carbon (mol/kg)  =   0 
                       Total CO2 (mol/kg)  =   0 
                      Temperature (deg C)  =  25.000
                  Electrical balance (eq)  =  -5.086e-10
 Percent error, 100*(Cat-|An|)/(Cat+|An|)  =      0
                               Iterations  =   2
                                  Total H  = 1.110124e+02
                                  Total O  = 5.550622e+01

----------------------------Distribution of species----------------------------

                                                   Log       Log         Log 
   Species                 Molality    Activity  Molality  Activity     Gamma

   OH-                    1.047e-07   1.001e-07    -6.980    -7.000    -0.019
   H+                     1.043e-07   1.000e-07    -6.982    -7.000    -0.018
   H2O                    5.551e+01   9.999e-01     1.744         0        0
Cl               1.595e-03
   Cl-                    1.595e-03   1.525e-03    -2.797    -2.817    -0.019
H(0)             0 
   H2                     0  0  -40.053   -40.053         0
Na               1.595e-03
   Na+                    1.595e-03   1.526e-03    -2.797    -2.816    -0.019
   NaOH                   1.008e-10   1.008e-10    -9.997    -9.996         0
O(0)             1.063e-12
   O2                     5.313e-13   5.315e-13   -12.275   -12.275         0

------------------------------Saturation indices-------------------------------

	Phase               SI log IAP  log KT

	H2(g)           -36.90  -40.05   -3.15  H2
	H2O(g)           -1.51       0   1.51  H2O
	Halite           -7.22   -5.63    1.58  NaCl
	O2(g)            -9.31  -12.27   -2.96  O2

Time 0.5. Cell 118: x=              7	y=             10	z=              0
Using solution 118.

-----------------------------Solution composition------------------------------

	Elements           Molality       Moles

	Cl                1.695e-03   1.695e-03
	Na                1.695e-03   1.695e-03

----------------------------Description of solution----------------------------

                                       pH  =   7.000      Charge balance
                                       pe  =  11.012      Adjusted to redox equilibrium
                        Activity of water  =   1.000
                           Ionic strength  =   1.695e-03
                       Mass of water (kg)  =   1.000e+00
                 Total alkalinity (eq/kg)  =   5.324e-10
                    Total carbon (mol/kg)  =   0 
                       Total CO2 (mol/kg)  =   0 
                      Temperature (deg C)  =  25.000
                  Electrical balance (eq)  =  -5.326e-10
 Percent error, 100*(Cat-|An|)/(Cat+|An|)  =      0
                               Iterations  =  10
                                  Total H  = 1.110124e+02
                                  Total O  = 5.550622e+01

----------------------------Distribution of species----------------------------

                                                   Log       Log         Log 
   Species                 Molality    Activity  Molality  Activity     Gamma

   OH-                    1.048e-07   1.001e-07    -6.980    -7.000    -0.020
   H+                     1.044e-07   1.000e-07    -6.981    -7.000    -0.019
   H2O                    5.551e+01   9.999e-01     1.744         0        0
Cl               1.695e-03
   Cl-                    1.695e-03   1.619e-03    -2.771    -2.791    -0.020
H(0)             1.340e-39
   H2                     6.698e-40   6.700e-40   -39.174   -39.174         0
Na               1.695e-03
   Na+                    1.695e-03   1.620e-03    -2.771    -2.791    -0.020
   NaOH                   1.070e-10   1.070e-10    -9.971    -9.971         0
O(0)             1.856e-14
   O2                     9.281e-15   9.285e-15   -14.032   -14.032         0

------------------------------Saturation indices-------------------------------

	Phase               SI log IAP  log KT

	H2(g)           -36.02  -39.17   -3.15  H2
	H2O(g)           -1.51       0   1.51  H2O
	Halite           -7.16   -5.58    1.58  NaCl
	O2(g)           -11.07  -14.03   -2.96  O2

Time 0.5. Cell 119: x=              8	y=             10	z=              0
Using solution 119.

-----------------------------Solution composition------------------------------

	Elements           Molality       Moles

	Cl                1.795e-03   1.795e-03
	Na                1.795e-03   1.795e-03

----------------------------Description of solution----------------------------

                                       pH  =   7.000      Charge balance
                                       pe  =  11.437      Adjusted to redox equilibrium
                        Activity of water  =   1.000
                           Ionic strength  =   1.795e-03
                       Mass of water (kg)  =   1.000e+00
                 Total alkalinity (eq/kg)  =   5.564e-10
                    Total carbon (mol/kg)  =   0 
                       Total CO2 (mol/kg)  =   0 
                      Temperature (deg C)  =  25.000
                  Electrical balance (eq)  =  -5.566e-10
 Percent error, 100*(Cat-|An|)/(Cat+|An|)  =      0
                               Iterations  =   2
                                  Total H  = 1.110124e+02
                                  Total O  = 5.550622e+01

----------------------------Distribution of species----------------------------

                                                   Log       Log         Log 
   Species                 Molality    Activity  Molality  Activity     Gamma

   OH-                    1.050e-07   1.001e-07    -6.979    -7.000    -0.021
   H+                     1.045e-07   1.000e-07    -6.981    -7.000    -0.019
   H2O                    5.551e+01   9.999e-01     1.744         0        0
Cl               1.795e-03
   Cl-                    1.795e-03   1.712e-03    -2.746    -2.766    -0.021
H(0)             0 
   H2                     0  0  -40.024   -40.024         0
Na               1.795e-03
   Na+                    1.795e-03   1.713e-03    -2.746    -2.766    -0.020
   NaOH                   1.131e-10   1.132e-10    -9.946    -9.946         0
O(0)             9.311e-13
   O2                     4.656e-13   4.658e-13   -12.332   -12.332         0

------------------------------Saturation indices-------------------------------

	Phase               SI log IAP  log KT

	H2(g)           -36.87  -40.02   -3.15  H2
	H2O(g)           -1.51       0   1.51  H2O
	Halite           -7.11   -5.53    1.58  NaCl
	O2(g)            -9.37  -12.33   -2.96  O2

Time 0.5. Cell 120: x=              9	y=             10	z=              0
Using solution 120.

-----------------------------Solution composition------------------------------

	Elements           Molality       Moles

	Cl                1.895e-03   1.895e-03
	Na                1.895e-03   1.895e-03

----------------------------Description of solution----------------------------

                                       pH  =   7.000      Charge balance
                                       pe  =  11.465      Adjusted to redox equilibrium
                        Activity of water  =   1.000
                           Ionic strength  =   1.895e-03
                       Mass of water (kg)  =   1.000e+00
                 Total alkalinity (eq/kg)  =   5.804e-10
                    Total carbon (mol/kg)  =   0 
                       Total CO2 (mol/kg)  =   0 
                      Temperature (deg C)  =  25.000
                  Electrical balance (eq)  =  -5.806e-10
 Percent error, 100*(Cat-|An|)/(Cat+|An|)  =      0
                               Iterations  =   2
                                  Total H  = 1.110124e+02
                                  Total O  = 5.550622e+01

----------------------------Distribution of species----------------------------

                                                   Log       Log         Log 
   Species                 Molality    Activity  Molality  Activity     Gamma

   OH-                    1.051e-07   1.001e-07    -6.978    -7.000    -0.021
   H+                     1.046e-07   1.000e-07    -6.980    -7.000    -0.020
   H2O                    5.551e+01   9.999e-01     1.744         0        0
Cl               1.895e-03
   Cl-                    1.895e-03   1.805e-03    -2.722    -2.743    -0.021
H(0)             0 
   H2                     0  0  -40.080   -40.080         0
Na               1.895e-03
   Na+                    1.895e-03   1.806e-03    -2.722    -2.743    -0.021
   NaOH                   1.193e-10   1.193e-10    -9.923    -9.923         0
O(0)             1.206e-12
   O2                     6.028e-13   6.030e-13   -12.220   -12.220         0

------------------------------Saturation indices-------------------------------

	Phase               SI log IAP  log KT

	H2(g)           -36.93  -40.08   -3.15  H2
	H2O(g)           -1.51       0   1.51  H2O
	Halite           -7.07   -5.49    1.58  NaCl
	O2(g)            -9.26  -12.22   -2.96  O2

Time 0.5. Cell 121: x=             10	y=             10	z=              0
Using solution 121.

-----------------------------Solution composition------------------------------

	Elements           Molality       Moles

	Cl                1.994e-03   1.994e-03
	Na                1.994e-03   1.994e-03

----------------------------Description of solution----------------------------

                                       pH  =   7.000      Charge balance
                                       pe  =  11.692      Adjusted to redox equilibrium
                        Activity of water  =   1.000
                           Ionic strength  =   1.994e-03
                       Mass of water (kg)  =   1.000e+00
                 Total alkalinity (eq/kg)  =   6.041e-10
                    Total carbon (mol/kg)  =   0 
                       Total CO2 (mol/kg)  =   0 
                      Temperature (deg C)  =  25.000
                  Electrical balance (eq)  =  -6.044e-10
 Percent error, 100*(Cat-|An|)/(Cat+|An|)  =      0
                               Iterations  =   7
                                  Total H  = 1.110124e+02
                                  Total O  = 5.550622e+01

----------------------------Distribution of species----------------------------

                                                   Log       Log         Log 
   Species                 Molality    Activity  Molality  Activity     Gamma

   OH-                    1.052e-07   1.001e-07    -6.978    -7.000    -0.022
   H+                     1.047e-07   1.000e-07    -6.980    -7.000    -0.020
   H2O                    5.551e+01   9.999e-01     1.744         0        0
Cl               1.994e-03
   Cl-                    1.994e-03   1.897e-03    -2.700    -2.722    -0.022
H(0)             0 
   H2                     0  0  -40.534   -40.533         0
Na               1.994e-03
   Na+                    1.994e-03   1.898e-03    -2.700    -2.722    -0.021
   NaOH                   1.254e-10   1.254e-10    -9.902    -9.902         0
O(0)             9.720e-12
   O2                     4.860e-12   4.862e-12   -11.313   -11.313         0

------------------------------Saturation indices-------------------------------

	Phase               SI log IAP  log KT

	H2(g)           -37.38  -40.53   -3.15  H2
	H2O(g)           -1.51       0   1.51  H2O
	Halite           -7.03   -5.44    1.58  NaCl
	O2(g)            -8.35  -11.31   -2.96  O2

