Output file:    disp2d.chem.txt
Chemistry file: disp2d.chem.dat
Database file:  phast.dat

------------------
Reading data base.
------------------

	SOLUTION_MASTER_SPECIES
	SOLUTION_SPECIES
	PHASES
	EXCHANGE_MASTER_SPECIES
	EXCHANGE_SPECIES
	SURFACE_MASTER_SPECIES
	SURFACE_SPECIES
	RATES
	END
------------------------------------
Reading input data for simulation 1.
------------------------------------

	SOLUTION 1
	        units mmol/kgw
	        pH      7.0     charge
	        temp    25
	        Na      0
	        Cl      0       
	END
-------------------------------------------
Beginning of initial solution calculations.
-------------------------------------------

Initial solution 1.	

-----------------------------Solution composition------------------------------

	Elements           Molality       Moles

	Pure water     

----------------------------Description of solution----------------------------

                                       pH  =   7.000      Charge balance
                                       pe  =   4.000    
                        Activity of water  =   1.000
                           Ionic strength  =   1.001e-07
                       Mass of water (kg)  =   1.000e+00
                 Total alkalinity (eq/kg)  =   3.121e-18
                    Total carbon (mol/kg)  =   0.000e+00
                       Total CO2 (mol/kg)  =   0.000e+00
                      Temperature (deg C)  =  25.000
                  Electrical balance (eq)  =  -3.121e-18
 Percent error, 100*(Cat-|An|)/(Cat+|An|)  =      0
                               Iterations  =   2
                                  Total H  = 1.110124e+02
                                  Total O  = 5.550622e+01

----------------------------Distribution of species----------------------------

                                                   Log       Log         Log 
   Species                 Molality    Activity  Molality  Activity     Gamma

   OH-                    1.001e-07   1.001e-07    -7.000    -7.000         0
   H+                     1.001e-07   1.001e-07    -7.000    -7.000         0
   H2O                    5.551e+01   1.000e+00     1.744         0         0
H(0)             1.417e-25
   H2                     7.087e-26   7.087e-26   -25.150   -25.150         0
O(0)             0.000e+00
   O2                     0.000e+00   0.000e+00   -42.081   -42.081         0

------------------------------Saturation indices-------------------------------

	Phase               SI log IAP  log KT

	H2(g)           -22.00  -25.15   -3.15  H2
	H2O(g)           -1.51       0    1.51  H2O
	O2(g)           -39.12  -42.08   -2.96  O2

------------------
End of simulation.
------------------

------------------------------------
Reading input data for simulation 2.
------------------------------------

	SOLUTION 2
	        units mmol/kgw
	        pH      7.0     charge
	        temp    25
	        Na      1
	        Cl      1
	END
-------------------------------------------
Beginning of initial solution calculations.
-------------------------------------------

Initial solution 2.	

-----------------------------Solution composition------------------------------

	Elements           Molality       Moles

	Cl                1.000e-03   1.000e-03
	Na                1.000e-03   1.000e-03

----------------------------Description of solution----------------------------

                                       pH  =   6.999      Charge balance
                                       pe  =   4.000    
                        Activity of water  =   1.000
                           Ionic strength  =   1.000e-03
                       Mass of water (kg)  =   1.000e+00
                 Total alkalinity (eq/kg)  =  -8.047e-21
                    Total carbon (mol/kg)  =   0.000e+00
                       Total CO2 (mol/kg)  =   0.000e+00
                      Temperature (deg C)  =  25.000
                  Electrical balance (eq)  =  -2.096e-17
 Percent error, 100*(Cat-|An|)/(Cat+|An|)  =      0
                               Iterations  =   3
                                  Total H  = 1.110124e+02
                                  Total O  = 5.550622e+01

----------------------------Distribution of species----------------------------

                                                   Log       Log         Log 
   Species                 Molality    Activity  Molality  Activity     Gamma

   H+                     1.036e-07   1.002e-07    -6.985    -6.999    -0.015
   OH-                    1.036e-07   9.993e-08    -6.985    -7.000    -0.016
   H2O                    5.551e+01   1.000e+00     1.744         0         0
Cl               1.000e-03
   Cl-                    1.000e-03   9.649e-04    -3.000    -3.016    -0.016
H(0)             1.421e-25
   H2                     7.103e-26   7.104e-26   -25.149   -25.148         0
Na               1.000e-03
   Na+                    1.000e-03   9.652e-04    -3.000    -3.015    -0.015
   NaOH                   6.364e-11   6.365e-11   -10.196   -10.196         0
O(0)             0.000e+00
   O2                     0.000e+00   0.000e+00   -42.083   -42.083         0

------------------------------Saturation indices-------------------------------

	Phase               SI log IAP  log KT

	H2(g)           -22.00  -25.15   -3.15  H2
	H2O(g)           -1.51       0    1.51  H2O
	Halite           -7.61   -6.03    1.58  NaCl
	O2(g)           -39.12  -42.08   -2.96  O2

------------------
End of simulation.
------------------

------------------------------------
Reading input data for simulation 3.
------------------------------------

	SELECTED_OUTPUT
	        file disp2d.sel
	        reset false
	USER_PUNCH
	heading   Cl_mol/kgw
	10 PUNCH TOT("Cl")*1000
	END
------------------
End of simulation.
------------------

------------------------------------
Reading input data for simulation 4.
------------------------------------

List of Components:
	1	H
	2	O
	3	Cl
	4	Na
	5	Charge
List of master species:
	1	Cl
	2	Na
