Output file:    free.O.chem
Chemistry file: free.chem.dat
Database file:  phast.dat

------------------
Reading data base.
------------------

	SOLUTION_MASTER_SPECIES
	SOLUTION_SPECIES
	PHASES
	EXCHANGE_MASTER_SPECIES
	EXCHANGE_SPECIES
	SURFACE_MASTER_SPECIES
	SURFACE_SPECIES
	RATES
	END
------------------------------------
Reading input data for simulation 1.
------------------------------------

	SOLUTION_MASTER_SPECIES
	        A       A       0       A       1
	SOLUTION_SPECIES
	        A = A
	        log_k   0
	SURFACE_MASTER_SPECIES
	        Surf    Surf
	SURFACE_SPECIES
	        Surf = Surf
	                log_k 0
	        Surf + A = SurfA 
	                log_k   -10
	SOLUTION 1
		 Na	1
		 Cl	1
	END
-------------------------------------------
Beginning of initial solution calculations.
-------------------------------------------

Initial solution 1.	

-----------------------------Solution composition------------------------------

	Elements           Molality       Moles

	Cl                1.000e-03   1.000e-03
	Na                1.000e-03   1.000e-03

----------------------------Description of solution----------------------------

                                       pH  =   7.000    
                                       pe  =   4.000    
                        Activity of water  =   1.000
                           Ionic strength  =   1.000e-03
                       Mass of water (kg)  =   1.000e+00
                 Total alkalinity (eq/kg)  =   3.658e-10
                    Total carbon (mol/kg)  =   0.000e+00
                       Total CO2 (mol/kg)  =   0.000e+00
                      Temperature (deg C)  =  25.000
                  Electrical balance (eq)  =  -3.658e-10
 Percent error, 100*(Cat-|An|)/(Cat+|An|)  =  -0.00
                               Iterations  =   3
                                  Total H  = 1.110124e+02
                                  Total O  = 5.550622e+01

----------------------------Distribution of species----------------------------

	                                           Log       Log         Log 
	Species            Molality    Activity  Molality  Activity     Gamma

	OH-               1.038e-07   1.001e-07    -6.984    -7.000    -0.016
	H+                1.034e-07   1.000e-07    -6.985    -7.000    -0.015
	H2O               5.551e+01   1.000e-00     1.744    -0.000     0.000
Cl               1.000e-03
	Cl-               1.000e-03   9.649e-04    -3.000    -3.016    -0.016
H(0)             1.416e-25
	H2                7.078e-26   7.079e-26   -25.150   -25.150     0.000
Na               1.000e-03
	Na+               1.000e-03   9.652e-04    -3.000    -3.015    -0.015
	NaOH              6.375e-11   6.377e-11   -10.196   -10.195     0.000
O(0)             0.000e+00
	O2                0.000e+00   0.000e+00   -42.080   -42.080     0.000

------------------------------Saturation indices-------------------------------

	Phase               SI log IAP  log KT

	H2(g)           -22.00  -25.15   -3.15  H2
	H2O(g)           -1.51   -0.00    1.51  H2O
	Halite           -7.61   -6.03    1.58  NaCl
	O2(g)           -39.12  -42.08   -2.96  O2

------------------
End of simulation.
------------------

------------------------------------
Reading input data for simulation 2.
------------------------------------

	SOLUTION 2
	        A        1.0 mmol/kgw
		Na	 1
		Br	 1
	END
-------------------------------------------
Beginning of initial solution calculations.
-------------------------------------------

Initial solution 2.	

-----------------------------Solution composition------------------------------

	Elements           Molality       Moles

	A                 1.000e-03   1.000e-03
	Br                1.000e-03   1.000e-03
	Na                1.000e-03   1.000e-03

----------------------------Description of solution----------------------------

                                       pH  =   7.000    
                                       pe  =   4.000    
                        Activity of water  =   1.000
                           Ionic strength  =   1.000e-03
                       Mass of water (kg)  =   1.000e+00
                 Total alkalinity (eq/kg)  =   3.640e-10
                    Total carbon (mol/kg)  =   0.000e+00
                       Total CO2 (mol/kg)  =   0.000e+00
                      Temperature (deg C)  =  25.000
                  Electrical balance (eq)  =  -3.640e-10
 Percent error, 100*(Cat-|An|)/(Cat+|An|)  =  -0.00
                               Iterations  =   3
                                  Total H  = 1.110124e+02
                                  Total O  = 5.550622e+01

----------------------------Distribution of species----------------------------

	                                           Log       Log         Log 
	Species            Molality    Activity  Molality  Activity     Gamma

	OH-               1.038e-07   1.001e-07    -6.984    -7.000    -0.016
	H+                1.034e-07   1.000e-07    -6.985    -7.000    -0.015
	H2O               5.551e+01   9.999e-01     1.744    -0.000     0.000
A                1.000e-03
	A                 1.000e-03   1.000e-03    -3.000    -3.000     0.000
Br               1.000e-03
	Br-               1.000e-03   9.647e-04    -3.000    -3.016    -0.016
H(0)             1.416e-25
	H2                7.078e-26   7.079e-26   -25.150   -25.150     0.000
Na               1.000e-03
	Na+               1.000e-03   9.652e-04    -3.000    -3.015    -0.015
	NaOH              6.375e-11   6.377e-11   -10.196   -10.195     0.000
O(0)             0.000e+00
	O2                0.000e+00   0.000e+00   -42.080   -42.080     0.000

------------------------------Saturation indices-------------------------------

	Phase               SI log IAP  log KT

	H2(g)           -22.00  -25.15   -3.15  H2
	H2O(g)           -1.51   -0.00    1.51  H2O
	O2(g)           -39.12  -42.08   -2.96  O2

------------------
End of simulation.
------------------

------------------------------------
Reading input data for simulation 3.
------------------------------------

	SURFACE 1
	        no_edl
	        Surf    1e10    
	END
------------------
End of simulation.
------------------

------------------------------------
Reading input data for simulation 4.
------------------------------------

	EQUILIBRIUM_PHASES 1
	        Calcite  0 1
	END
------------------
End of simulation.
------------------

------------------------------------
Reading input data for simulation 5.
------------------------------------

	SOLID_SOLUTION 1
	        CaSrBaSO4    # greater than 2 components, ideal
	                component   Anhydrite   1.
	                component   Celestite   0.1
	                component   Barite      1
	END
------------------
End of simulation.
------------------

------------------------------------
Reading input data for simulation 6.
------------------------------------

	EXCHANGE 1              
	        NaX             2.0
	END
------------------
End of simulation.
------------------

------------------------------------
Reading input data for simulation 7.
------------------------------------

	GAS_PHASE 1
	        fixed_volume
	        volume 1
	        N2(g)      0.78
	        O2(g)      .0003
	END
------------------
End of simulation.
------------------

------------------------------------
Reading input data for simulation 8.
------------------------------------

	KINETICS 1
	        K-feldspar
	                m0 2
	                m  1
	                parms 1.36e4  0.1
	                tol 1e-12
	        Pyrite  
	                tol    1e-6
	                m0     2
	                m      1
	                parms -5.0     0.1     .5      -0.11 
	END
------------------
End of simulation.
------------------

------------------------------------
Reading input data for simulation 9.
------------------------------------

	SELECTED_OUTPUT
	        file free.dummy.sel
	        reset false
	USER_PUNCH
	        headings A SurfA SurfA/A Cl Br
	10 PUNCH TOT("A")*1000
	20 PUNCH MOL("SurfA")*1000
	30 IF TOT("A") > 0 THEN PUNCH MOL("SurfA")/TOT("A") ELSE PUNCH -1
	40 PUNCH TOT("Cl")*1000
	50 PUNCH TOT("Br")*1000
	END
------------------
End of simulation.
------------------

-------------------------------------
Reading input data for simulation 10.
-------------------------------------

List of Components:
	1	H
	2	O
	3	A
	4	Al
	5	Ba
	6	Br
	7	C
	8	Ca
	9	Cl
	10	Fe
	11	K
	12	N
	13	Na
	14	S
	15	Si
	16	Sr
	17	Charge
List of master species:
	1	A
	2	Al
	3	Ba
	4	Br
	5	C(-4)
	6	C(4)
	7	Ca
	8	Cl
	9	Fe(2)
	10	Fe(3)
	11	K
	12	N(-3)
	13	N(0)
	14	N(3)
	15	N(5)
	16	Na
	17	S(-2)
	18	S(6)
	19	Si
	20	Sr
Time 0.0001. Cell 1: x=              0	y=              0	z=              0
Using solution 1.
Using exchange 1
Using surface 1.
Using pure phase assemblage 1.
Using solid solution assemblage 1.
Using gas phase 1.
Using kinetics 1.

Kinetics.

	Time:      0.0001 seconds
	Time step: 0.0001 seconds

	Rate name       Delta Moles Total Moles   Reactant        Coefficient

	K-feldspar       -1.110e-16   1.000e-00   K-feldspar                1
	Pyrite            0.000e+00   1.000e-00   Pyrite                    1

-----------------------------------Gas phase-----------------------------------


Total pressure:   0.7704   atmospheres
    Gas volume:   1.00e-00 liters

                                                      Moles in gas
                                         ----------------------------------
Component             log P           P     Initial       Final       Delta
N2(g)                 -0.11   7.704e-01   3.149e-02   3.149e-02   0.000e+00
O2(g)                -10.66   2.196e-11   8.977e-13   8.977e-13   0.000e+00

-------------------------------Phase assemblage--------------------------------

                                                       Moles in assemblage
	Phase               SI log IAP  log KT     Initial       Final       Delta

	Calcite           0.00   -8.48   -8.48   9.999e-01   9.999e-01  -1.520e-09

--------------------------------Solid solutions--------------------------------


	Solid solution         Component        Moles  Delta moles   Mole fract
	CaSrBaSO4                            1.94e+00
	                       Anhydrite     8.40e-01    -1.97e-06     4.33e-01
	                          Barite     1.00e-00    -9.71e-12     5.16e-01
	                       Celestite     9.99e-02    -1.88e-09     5.15e-02

------------------------------Surface composition------------------------------

Surf          
	  0.000e+00  Surface charge, eq
Surf          
	  1.000e+10  moles
	                                   Mole                     Log
	Species               Moles    Fraction    Molality    Molality

	Surf              1.000e+10       1.000   1.000e+10      10.000
	SurfA             1.046e-08       0.000   1.046e-08      -7.980

-----------------------------Exchange composition------------------------------

X                2.000e+00 mol

	                               Equiv-    Equivalent      Log 
	Species             Moles      alents      Fraction     Gamma

	NaX               1.691e+00   1.691e+00   8.454e-01    -0.146
	CaX2              1.545e-01   3.089e-01   1.545e-01    -0.567
	SrX2              1.271e-04   2.543e-04   1.271e-04    -0.568
	BaX2              6.784e-07   1.357e-06   6.784e-07    -0.633
	KX                1.030e-16   1.030e-16   5.149e-17    -0.181
	AlOHX2            4.433e-25   8.867e-25   4.434e-25    -0.545
	AlX3              3.230e-29   9.691e-29   4.845e-29    -1.012
	NH4X              4.554e-49   4.554e-49   2.277e-49    -0.212

-----------------------------Solution composition------------------------------

	Elements           Molality       Moles

	A                 9.537e-09   9.537e-09
	Al                1.069e-16   1.069e-16
	Ba                3.398e-08   3.398e-08
	Br                2.000e-08   2.000e-08
	C                 1.040e-04   1.040e-04
	Ca                6.004e-03   6.004e-03
	Cl                1.000e-03   1.000e-03
	K                 3.899e-18   3.899e-18
	N                 7.817e-04   7.817e-04
	Na                3.102e-01   3.102e-01
	S                 1.605e-01   1.605e-01
	Si                3.206e-16   3.206e-16
	Sr                3.778e-06   3.778e-06

----------------------------Description of solution----------------------------

                                       pH  =   9.444      Charge balance
                                       pe  =   8.673      Adjusted to redox equilibrium
                        Activity of water  =   0.993
                           Ionic strength  =   4.023e-01
                       Mass of water (kg)  =   1.000e-00
                 Total alkalinity (eq/kg)  =   1.982e-04
                       Total CO2 (mol/kg)  =   1.040e-04
                      Temperature (deg C)  =  25.000
                  Electrical balance (eq)  =  -1.167e-10
 Percent error, 100*(Cat-|An|)/(Cat+|An|)  =  -0.00
                               Iterations  =  36
                                  Total H  = 1.110124e+02
                                  Total O  = 5.614850e+01

----------------------------Distribution of species----------------------------

	                                           Log       Log         Log 
	Species            Molality    Activity  Molality  Activity     Gamma

	OH-               4.246e-05   2.762e-05    -4.372    -4.559    -0.187
	H+                4.660e-10   3.598e-10    -9.332    -9.444    -0.112
	H2O               5.551e+01   9.925e-01     1.744    -0.003     0.000
A                9.537e-09
	A                 9.537e-09   1.046e-08    -8.021    -7.980     0.040
Al               1.069e-16
	Al(OH)4-          1.069e-16   7.809e-17   -15.971   -16.107    -0.136
	Al(OH)3           1.369e-20   1.502e-20   -19.864   -19.823     0.040
	Al(OH)2+          5.056e-23   3.695e-23   -22.296   -22.432    -0.136
	AlOH+2            5.991e-27   1.709e-27   -26.222   -26.767    -0.545
	AlSO4+            7.308e-30   5.341e-30   -29.136   -29.272    -0.136
	Al(SO4)2-         6.259e-30   4.574e-30   -29.204   -29.340    -0.136
	Al+3              6.404e-31   6.236e-32   -30.194   -31.205    -1.012
	AlHSO4+2          5.973e-40   1.704e-40   -39.224   -39.769    -0.545
Ba               3.398e-08
	BaSO4             2.522e-08   2.766e-08    -7.598    -7.558     0.040
	Ba+2              8.755e-09   2.038e-09    -8.058    -8.691    -0.633
	BaCO3             4.565e-12   5.008e-12   -11.341   -11.300     0.040
	BaHCO3+           9.754e-13   7.129e-13   -12.011   -12.147    -0.136
	BaOH+             2.607e-13   1.905e-13   -12.584   -12.720    -0.136
Br               2.000e-08
	Br-               2.000e-08   1.265e-08    -7.699    -7.898    -0.199
C(-4)            0.000e+00
	CH4               0.000e+00   0.000e+00  -128.107  -128.066     0.040
C(4)             1.040e-04
	HCO3-             5.179e-05   3.649e-05    -4.286    -4.438    -0.152
	NaCO3-            2.370e-05   1.732e-05    -4.625    -4.761    -0.136
	CO3-2             1.930e-05   4.756e-06    -4.715    -5.323    -0.608
	CaCO3             5.073e-06   5.565e-06    -5.295    -5.255     0.040
	NaHCO3            3.659e-06   4.014e-06    -5.437    -5.396     0.040
	CaHCO3+           4.602e-07   3.242e-07    -6.337    -6.489    -0.152
	CO2               2.711e-08   2.974e-08    -7.567    -7.527     0.040
	SrCO3             1.228e-09   1.347e-09    -8.911    -8.871     0.040
	SrHCO3+           3.514e-10   2.476e-10    -9.454    -9.606    -0.152
	BaCO3             4.565e-12   5.008e-12   -11.341   -11.300     0.040
	BaHCO3+           9.754e-13   7.129e-13   -12.011   -12.147    -0.136
Ca               6.004e-03
	CaSO4             3.431e-03   3.764e-03    -2.465    -2.424     0.040
	Ca+2              2.568e-03   6.965e-04    -2.590    -3.157    -0.567
	CaCO3             5.073e-06   5.565e-06    -5.295    -5.255     0.040
	CaHCO3+           4.602e-07   3.242e-07    -6.337    -6.489    -0.152
	CaOH+             4.363e-07   3.189e-07    -6.360    -6.496    -0.136
	CaHSO4+           1.085e-11   7.932e-12   -10.964   -11.101    -0.136
Cl               1.000e-03
	Cl-               1.000e-03   6.594e-04    -3.000    -3.181    -0.181
H(0)             7.529e-40
	H2                3.764e-40   4.130e-40   -39.424   -39.384     0.040
K                3.899e-18
	K+                3.327e-18   2.194e-18   -17.478   -17.659    -0.181
	KSO4-             5.713e-19   4.175e-19   -18.243   -18.379    -0.136
	KOH               1.913e-23   2.099e-23   -22.718   -22.678     0.040
N(-3)            0.000e+00
	NH4+              0.000e+00   0.000e+00   -49.732   -49.945    -0.212
	NH3               0.000e+00   0.000e+00   -49.785   -49.745     0.040
	NH4SO4-           0.000e+00   0.000e+00   -50.266   -50.402    -0.136
N(0)             7.719e-04
	N2                3.859e-04   4.234e-04    -3.413    -3.373     0.040
N(3)             2.142e-13
	NO2-              2.142e-13   1.355e-13   -12.669   -12.868    -0.199
N(5)             9.809e-06
	NO3-              9.809e-06   6.206e-06    -5.008    -5.207    -0.199
Na               3.102e-01
	Na+               2.738e-01   1.956e-01    -0.563    -0.709    -0.146
	NaSO4-            3.633e-02   2.655e-02    -1.440    -1.576    -0.136
	NaCO3-            2.370e-05   1.732e-05    -4.625    -4.761    -0.136
	NaHCO3            3.659e-06   4.014e-06    -5.437    -5.396     0.040
	NaOH              3.250e-06   3.565e-06    -5.488    -5.448     0.040
O(0)             4.390e-14
	O2                2.195e-14   2.408e-14   -13.659   -13.618     0.040
S(-2)            0.000e+00
	HS-               0.000e+00   0.000e+00  -122.098  -122.285    -0.187
	H2S               0.000e+00   0.000e+00  -124.827  -124.787     0.040
	S-2               0.000e+00   0.000e+00  -125.126  -125.759    -0.633
S(6)             1.605e-01
	SO4-2             1.207e-01   2.708e-02    -0.918    -1.567    -0.649
	NaSO4-            3.633e-02   2.655e-02    -1.440    -1.576    -0.136
	CaSO4             3.431e-03   3.764e-03    -2.465    -2.424     0.040
	SrSO4             2.135e-06   2.343e-06    -5.671    -5.630     0.040
	BaSO4             2.522e-08   2.766e-08    -7.598    -7.558     0.040
	HSO4-             1.296e-09   9.473e-10    -8.887    -9.024    -0.136
	CaHSO4+           1.085e-11   7.932e-12   -10.964   -11.101    -0.136
	KSO4-             5.713e-19   4.175e-19   -18.243   -18.379    -0.136
	AlSO4+            7.308e-30   5.341e-30   -29.136   -29.272    -0.136
	Al(SO4)2-         6.259e-30   4.574e-30   -29.204   -29.340    -0.136
	AlHSO4+2          5.973e-40   1.704e-40   -39.224   -39.769    -0.545
	NH4SO4-           0.000e+00   0.000e+00   -50.266   -50.402    -0.136
Si               3.206e-16
	H4SiO4            1.985e-16   2.177e-16   -15.702   -15.662     0.040
	H3SiO4-           1.221e-16   8.923e-17   -15.913   -16.049    -0.136
	H2SiO4-2          5.914e-20   1.687e-20   -19.228   -19.773    -0.545
Sr               3.778e-06
	SrSO4             2.135e-06   2.343e-06    -5.671    -5.630     0.040
	Sr+2              1.641e-06   4.436e-07    -5.785    -6.353    -0.568
	SrCO3             1.228e-09   1.347e-09    -8.911    -8.871     0.040
	SrHCO3+           3.514e-10   2.476e-10    -9.454    -9.606    -0.152
	SrOH+             9.036e-11   6.276e-11   -10.044   -10.202    -0.158

------------------------------Saturation indices-------------------------------

	Phase               SI log IAP  log KT

	Al(OH)3(a)      -13.68   -2.88   10.80  Al(OH)3
	Albite          -45.77  -63.78  -18.00  NaAlSi3O8
	Alunite         -56.36  -57.76   -1.40  KAl3(SO4)2(OH)6
	Anhydrite        -0.36   -4.72   -4.36  CaSO4
	Anorthite       -46.96  -66.67  -19.71  CaAl2Si2O8
	Aragonite        -0.14   -8.48   -8.34  CaCO3
	Barite           -0.29  -10.26   -9.97  BaSO4
	Ca-Montmorillonite -69.35 -114.38  -45.03  Ca0.165Al2.33Si3.67O10(OH)2
	Calcite           0.00   -8.48   -8.48  CaCO3
	Celestite        -1.29   -7.92   -6.63  SrSO4
	CH4(g)         -125.21 -128.07   -2.86  CH4
	Chalcedony      -12.10  -15.66   -3.55  SiO2
	CO2(g)           -6.06   -7.53   -1.47  CO2
	Gibbsite        -10.99   -2.88    8.11  Al(OH)3
	Gypsum           -0.15   -4.73   -4.58  CaSO4:2H2O
	H2(g)           -36.23  -39.38   -3.15  H2
	H2O(g)           -1.51   -0.00    1.51  H2O
	H2S(g)         -123.79 -124.79   -1.00  H2S
	Halite           -5.47   -3.89    1.58  NaCl
	K-feldspar      -60.15  -80.73  -20.57  KAlSi3O8
	K-mica          -76.52  -63.82   12.70  KAl3Si3O10(OH)2
	Kaolinite       -44.51  -37.07    7.43  Al2Si2O5(OH)4
	N2(g)            -0.11   -3.37   -3.26  N2
	NH3(g)          -51.51  -49.74    1.77  NH3
	O2(g)           -10.66  -13.62   -2.96  O2
	Quartz          -11.68  -15.66   -3.98  SiO2
	SiO2(a)         -12.94  -15.66   -2.71  SiO2
	Strontianite     -2.41  -11.68   -9.27  SrCO3
	Sulfur          -93.43  -88.55    4.88  S
	Witherite        -5.45  -14.01   -8.56  BaCO3

Time 0.0001. Cell 2: x=              1	y=              0	z=              0
Using solution 2.
Using exchange 2
Using surface 2.
Using pure phase assemblage 2.
Using solid solution assemblage 2.
Using gas phase 2.
Using kinetics 2.

Kinetics.

	Time:      0.0001 seconds
	Time step: 0.0001 seconds

	Rate name       Delta Moles Total Moles   Reactant        Coefficient

	K-feldspar       -1.110e-16   1.000e-00   K-feldspar                1
	Pyrite            0.000e+00   1.000e-00   Pyrite                    1

-----------------------------------Gas phase-----------------------------------


Total pressure:   0.7708   atmospheres
    Gas volume:   1.00e-00 liters

                                                      Moles in gas
                                         ----------------------------------
Component             log P           P     Initial       Final       Delta
N2(g)                 -0.11   7.708e-01   3.149e-02   3.150e-02   0.000e+00
O2(g)                -10.72   1.901e-11   8.977e-13   7.770e-13   0.000e+00

-------------------------------Phase assemblage--------------------------------

                                                       Moles in assemblage
	Phase               SI log IAP  log KT     Initial       Final       Delta

	Calcite           0.00   -8.48   -8.48   9.999e-01   9.998e-01  -3.709e-05

--------------------------------Solid solutions--------------------------------


	Solid solution         Component        Moles  Delta moles   Mole fract
	CaSrBaSO4                            1.87e+00
	                       Anhydrite     7.67e-01    -7.31e-02     4.11e-01
	                          Barite     1.00e-00    -3.78e-07     5.36e-01
	                       Celestite     9.98e-02    -6.71e-05     5.35e-02

------------------------------Surface composition------------------------------

Surf          
	  0.000e+00  Surface charge, eq
Surf          
	  1.000e+10  moles
	                                   Mole                     Log
	Species               Moles    Fraction    Molality    Molality

	Surf              1.000e+10       1.000   1.000e+10      10.000
	SurfA             1.066e-08       0.000   1.066e-08      -7.972

-----------------------------Exchange composition------------------------------

X                2.000e+00 mol

	                               Equiv-    Equivalent      Log 
	Species             Moles      alents      Fraction     Gamma

	NaX               1.852e+00   1.852e+00   9.261e-01    -0.150
	CaX2              7.385e-02   1.477e-01   7.385e-02    -0.593
	SrX2              6.723e-05   1.345e-04   6.723e-05    -0.599
	BaX2              3.787e-07   7.574e-07   3.787e-07    -0.687
	KX                1.030e-16   1.030e-16   5.151e-17    -0.197
	AlOHX2            1.706e-25   3.412e-25   1.706e-25    -0.528
	AlX3              9.882e-30   2.965e-29   1.482e-29    -1.071
	NH4X              3.555e-49   3.555e-49   1.777e-49    -0.237

-----------------------------Solution composition------------------------------

	Elements           Molality       Moles

	A                 9.344e-09   9.344e-09
	Al                1.083e-16   1.083e-16
	Ba                3.372e-08   3.372e-08
	Br                2.000e-08   2.000e-08
	C                 1.411e-04   1.411e-04
	Ca                5.273e-03   5.273e-03
	Cl                1.000e-03   1.000e-03
	K                 5.261e-18   5.261e-18
	N                 7.527e-04   7.527e-04
	Na                4.580e-01   4.580e-01
	S                 2.336e-01   2.336e-01
	Si                3.249e-16   3.249e-16
	Sr                3.644e-06   3.644e-06

----------------------------Description of solution----------------------------

                                       pH  =   9.501      Charge balance
                                       pe  =   8.601      Adjusted to redox equilibrium
                        Activity of water  =   0.989
                           Ionic strength  =   5.702e-01
                       Mass of water (kg)  =   1.000e-00
                 Total alkalinity (eq/kg)  =   2.724e-04
                       Total CO2 (mol/kg)  =   1.411e-04
                      Temperature (deg C)  =  25.000
                  Electrical balance (eq)  =  -4.181e-10
 Percent error, 100*(Cat-|An|)/(Cat+|An|)  =  -0.00
                               Iterations  =  41
                                  Total H  = 1.110124e+02
                                  Total O  = 5.644121e+01

----------------------------Distribution of species----------------------------

	                                           Log       Log         Log 
	Species            Molality    Activity  Molality  Activity     Gamma

	OH-               5.046e-05   3.141e-05    -4.297    -4.503    -0.206
	H+                4.148e-10   3.153e-10    -9.382    -9.501    -0.119
	H2O               5.551e+01   9.892e-01     1.744    -0.005     0.000
A                9.344e-09
	A                 9.344e-09   1.066e-08    -8.029    -7.972     0.057
Al               1.083e-16
	Al(OH)4-          1.083e-16   7.990e-17   -15.965   -16.097    -0.132
	Al(OH)3           1.185e-20   1.351e-20   -19.926   -19.869     0.057
	Al(OH)2+          3.962e-23   2.923e-23   -22.402   -22.534    -0.132
	AlOH+2            4.010e-27   1.189e-27   -26.397   -26.925    -0.528
	Al(SO4)2-         5.566e-30   4.107e-30   -29.254   -29.386    -0.132
	AlSO4+            5.365e-30   3.959e-30   -29.270   -29.402    -0.132
	Al+3              4.495e-31   3.816e-32   -30.347   -31.418    -1.071
	AlHSO4+2          3.733e-40   1.107e-40   -39.428   -39.956    -0.528
Ba               3.372e-08
	BaSO4             2.521e-08   2.875e-08    -7.598    -7.541     0.057
	Ba+2              8.502e-09   1.748e-09    -8.070    -8.757    -0.687
	BaCO3             4.811e-12   5.486e-12   -11.318   -11.261     0.057
	BaHCO3+           9.274e-13   6.844e-13   -12.033   -12.165    -0.132
	BaOH+             2.519e-13   1.859e-13   -12.599   -12.731    -0.132
Br               2.000e-08
	Br-               2.000e-08   1.204e-08    -7.699    -7.920    -0.221
C(-4)            0.000e+00
	CH4               0.000e+00   0.000e+00  -128.008  -127.951     0.057
C(4)             1.411e-04
	HCO3-             5.963e-05   4.084e-05    -4.225    -4.389    -0.164
	NaCO3-            4.289e-05   3.165e-05    -4.368    -4.500    -0.132
	CO3-2             2.762e-05   6.073e-06    -4.559    -5.217    -0.658
	NaHCO3            5.636e-06   6.426e-06    -5.249    -5.192     0.057
	CaCO3             4.880e-06   5.565e-06    -5.312    -5.255     0.057
	CaHCO3+           4.150e-07   2.842e-07    -6.382    -6.546    -0.164
	CO2               2.567e-08   2.927e-08    -7.591    -7.534     0.057
	SrCO3             1.293e-09   1.474e-09    -8.888    -8.831     0.057
	SrHCO3+           3.469e-10   2.375e-10    -9.460    -9.624    -0.164
	BaCO3             4.811e-12   5.486e-12   -11.318   -11.261     0.057
	BaHCO3+           9.274e-13   6.844e-13   -12.033   -12.165    -0.132
Ca               5.273e-03
	CaSO4             3.131e-03   3.571e-03    -2.504    -2.447     0.057
	Ca+2              2.136e-03   5.455e-04    -2.670    -3.263    -0.593
	CaCO3             4.880e-06   5.565e-06    -5.312    -5.255     0.057
	CaHCO3+           4.150e-07   2.842e-07    -6.382    -6.546    -0.164
	CaOH+             3.848e-07   2.840e-07    -6.415    -6.547    -0.132
	CaHSO4+           8.939e-12   6.596e-12   -11.049   -11.181    -0.132
Cl               1.000e-03
	Cl-               1.000e-03   6.348e-04    -3.000    -3.197    -0.197
H(0)             7.759e-40
	H2                3.880e-40   4.424e-40   -39.411   -39.354     0.057
K                5.261e-18
	K+                4.391e-18   2.787e-18   -17.357   -17.555    -0.197
	KSO4-             8.707e-19   6.425e-19   -18.060   -18.192    -0.132
	KOH               2.659e-23   3.032e-23   -22.575   -22.518     0.057
N(-3)            0.000e+00
	NH4+              0.000e+00   0.000e+00   -49.720   -49.957    -0.237
	NH3               0.000e+00   0.000e+00   -49.757   -49.700     0.057
	NH4SO4-           0.000e+00   0.000e+00   -50.199   -50.331    -0.132
N(0)             7.429e-04
	N2                3.715e-04   4.236e-04    -3.430    -3.373     0.057
N(3)             2.302e-13
	NO2-              2.302e-13   1.385e-13   -12.638   -12.858    -0.221
N(5)             9.809e-06
	NO3-              9.809e-06   5.903e-06    -5.008    -5.229    -0.221
Na               4.580e-01
	Na+               3.956e-01   2.798e-01    -0.403    -0.553    -0.150
	NaSO4-            6.236e-02   4.601e-02    -1.205    -1.337    -0.132
	NaCO3-            4.289e-05   3.165e-05    -4.368    -4.500    -0.132
	NaHCO3            5.636e-06   6.426e-06    -5.249    -5.192     0.057
	NaOH              5.087e-06   5.800e-06    -5.294    -5.237     0.057
O(0)             3.656e-14
	O2                1.828e-14   2.084e-14   -13.738   -13.681     0.057
S(-2)            0.000e+00
	HS-               0.000e+00   0.000e+00  -121.927  -122.133    -0.206
	H2S               0.000e+00   0.000e+00  -124.750  -124.693     0.057
	S-2               0.000e+00   0.000e+00  -124.863  -125.550    -0.687
S(6)             2.336e-01
	SO4-2             1.681e-01   3.281e-02    -0.774    -1.484    -0.710
	NaSO4-            6.236e-02   4.601e-02    -1.205    -1.337    -0.132
	CaSO4             3.131e-03   3.571e-03    -2.504    -2.447     0.057
	SrSO4             2.133e-06   2.433e-06    -5.671    -5.614     0.057
	BaSO4             2.521e-08   2.875e-08    -7.598    -7.541     0.057
	HSO4-             1.363e-09   1.006e-09    -8.865    -8.997    -0.132
	CaHSO4+           8.939e-12   6.596e-12   -11.049   -11.181    -0.132
	KSO4-             8.707e-19   6.425e-19   -18.060   -18.192    -0.132
	Al(SO4)2-         5.566e-30   4.107e-30   -29.254   -29.386    -0.132
	AlSO4+            5.365e-30   3.959e-30   -29.270   -29.402    -0.132
	AlHSO4+2          3.733e-40   1.107e-40   -39.428   -39.956    -0.528
	NH4SO4-           0.000e+00   0.000e+00   -50.199   -50.331    -0.132
Si               3.249e-16
	H4SiO4            1.885e-16   2.150e-16   -15.725   -15.668     0.057
	H3SiO4-           1.362e-16   1.005e-16   -15.866   -15.998    -0.132
	H2SiO4-2          7.315e-20   2.169e-20   -19.136   -19.664    -0.528
Sr               3.644e-06
	SrSO4             2.133e-06   2.433e-06    -5.671    -5.614     0.057
	Sr+2              1.509e-06   3.803e-07    -5.821    -6.420    -0.599
	SrCO3             1.293e-09   1.474e-09    -8.888    -8.831     0.057
	SrHCO3+           3.469e-10   2.375e-10    -9.460    -9.624    -0.164
	SrOH+             9.086e-11   6.118e-11   -10.042   -10.213    -0.172

------------------------------Saturation indices-------------------------------

	Phase               SI log IAP  log KT

	Al(OH)3(a)      -13.73   -2.93   10.80  Al(OH)3
	Albite          -45.61  -63.62  -18.00  NaAlSi3O8
	Alunite         -56.40  -57.80   -1.40  KAl3(SO4)2(OH)6
	Anhydrite        -0.39   -4.75   -4.36  CaSO4
	Anorthite       -47.04  -66.76  -19.71  CaAl2Si2O8
	Aragonite        -0.14   -8.48   -8.34  CaCO3
	Barite           -0.27  -10.24   -9.97  BaSO4
	Ca-Montmorillonite -69.46 -114.49  -45.03  Ca0.165Al2.33Si3.67O10(OH)2
	Calcite           0.00   -8.48   -8.48  CaCO3
	Celestite        -1.27   -7.90   -6.63  SrSO4
	CH4(g)         -125.09 -127.95   -2.86  CH4
	Chalcedony      -12.11  -15.66   -3.55  SiO2
	CO2(g)           -6.07   -7.53   -1.47  CO2
	Gibbsite        -11.04   -2.93    8.11  Al(OH)3
	Gypsum           -0.18   -4.76   -4.58  CaSO4:2H2O
	H2(g)           -36.20  -39.35   -3.15  H2
	H2O(g)           -1.51   -0.00    1.51  H2O
	H2S(g)         -123.70 -124.69   -1.00  H2S
	Halite           -5.33   -3.75    1.58  NaCl
	K-feldspar      -60.04  -80.62  -20.57  KAlSi3O8
	K-mica          -76.50  -63.80   12.70  KAl3Si3O10(OH)2
	Kaolinite       -44.60  -37.17    7.43  Al2Si2O5(OH)4
	N2(g)            -0.11   -3.37   -3.26  N2
	NH3(g)          -51.47  -49.70    1.77  NH3
	O2(g)           -10.72  -13.68   -2.96  O2
	Quartz          -11.68  -15.66   -3.98  SiO2
	SiO2(a)         -12.95  -15.66   -2.71  SiO2
	Strontianite     -2.37  -11.64   -9.27  SrCO3
	Sulfur          -93.37  -88.49    4.88  S
	Witherite        -5.41  -13.97   -8.56  BaCO3

Time 0.0001. Cell 3: x=              0	y=              1	z=              0
Using solution 3.
Using exchange 3
Using surface 3.
Using pure phase assemblage 3.
Using solid solution assemblage 3.
Using gas phase 3.
Using kinetics 3.

Kinetics.

	Time:      0.0001 seconds
	Time step: 0.0001 seconds

	Rate name       Delta Moles Total Moles   Reactant        Coefficient

	K-feldspar       -1.110e-16   1.000e-00   K-feldspar                1
	Pyrite            0.000e+00   1.000e-00   Pyrite                    1

-----------------------------------Gas phase-----------------------------------


Total pressure:   0.7704   atmospheres
    Gas volume:   1.00e-00 liters

                                                      Moles in gas
                                         ----------------------------------
Component             log P           P     Initial       Final       Delta
N2(g)                 -0.11   7.704e-01   3.149e-02   3.149e-02   0.000e+00
O2(g)                -10.66   2.196e-11   8.977e-13   8.977e-13   0.000e+00

-------------------------------Phase assemblage--------------------------------

                                                       Moles in assemblage
	Phase               SI log IAP  log KT     Initial       Final       Delta

	Calcite           0.00   -8.48   -8.48   9.999e-01   9.999e-01  -1.520e-09

--------------------------------Solid solutions--------------------------------


	Solid solution         Component        Moles  Delta moles   Mole fract
	CaSrBaSO4                            1.94e+00
	                       Anhydrite     8.40e-01    -1.97e-06     4.33e-01
	                          Barite     1.00e-00    -9.71e-12     5.16e-01
	                       Celestite     9.99e-02    -1.88e-09     5.15e-02

------------------------------Surface composition------------------------------

Surf          
	  0.000e+00  Surface charge, eq
Surf          
	  1.000e+10  moles
	                                   Mole                     Log
	Species               Moles    Fraction    Molality    Molality

	Surf              1.000e+10       1.000   1.000e+10      10.000
	SurfA             1.046e-08       0.000   1.046e-08      -7.980

-----------------------------Exchange composition------------------------------

X                2.000e+00 mol

	                               Equiv-    Equivalent      Log 
	Species             Moles      alents      Fraction     Gamma

	NaX               1.691e+00   1.691e+00   8.454e-01    -0.146
	CaX2              1.545e-01   3.089e-01   1.545e-01    -0.567
	SrX2              1.271e-04   2.543e-04   1.271e-04    -0.568
	BaX2              6.784e-07   1.357e-06   6.784e-07    -0.633
	KX                1.030e-16   1.030e-16   5.149e-17    -0.181
	AlOHX2            4.433e-25   8.867e-25   4.434e-25    -0.545
	AlX3              3.230e-29   9.691e-29   4.845e-29    -1.012
	NH4X              4.554e-49   4.554e-49   2.277e-49    -0.212

-----------------------------Solution composition------------------------------

	Elements           Molality       Moles

	A                 9.537e-09   9.537e-09
	Al                1.069e-16   1.069e-16
	Ba                3.398e-08   3.398e-08
	Br                2.000e-08   2.000e-08
	C                 1.040e-04   1.040e-04
	Ca                6.004e-03   6.004e-03
	Cl                1.000e-03   1.000e-03
	K                 3.899e-18   3.899e-18
	N                 7.817e-04   7.817e-04
	Na                3.102e-01   3.102e-01
	S                 1.605e-01   1.605e-01
	Si                3.206e-16   3.206e-16
	Sr                3.778e-06   3.778e-06

----------------------------Description of solution----------------------------

                                       pH  =   9.444      Charge balance
                                       pe  =   8.673      Adjusted to redox equilibrium
                        Activity of water  =   0.993
                           Ionic strength  =   4.023e-01
                       Mass of water (kg)  =   1.000e-00
                 Total alkalinity (eq/kg)  =   1.982e-04
                       Total CO2 (mol/kg)  =   1.040e-04
                      Temperature (deg C)  =  25.000
                  Electrical balance (eq)  =  -4.182e-10
 Percent error, 100*(Cat-|An|)/(Cat+|An|)  =  -0.00
                               Iterations  =  38
                                  Total H  = 1.110124e+02
                                  Total O  = 5.614850e+01

----------------------------Distribution of species----------------------------

	                                           Log       Log         Log 
	Species            Molality    Activity  Molality  Activity     Gamma

	OH-               4.246e-05   2.762e-05    -4.372    -4.559    -0.187
	H+                4.660e-10   3.598e-10    -9.332    -9.444    -0.112
	H2O               5.551e+01   9.925e-01     1.744    -0.003     0.000
A                9.537e-09
	A                 9.537e-09   1.046e-08    -8.021    -7.980     0.040
Al               1.069e-16
	Al(OH)4-          1.069e-16   7.809e-17   -15.971   -16.107    -0.136
	Al(OH)3           1.369e-20   1.502e-20   -19.864   -19.823     0.040
	Al(OH)2+          5.056e-23   3.695e-23   -22.296   -22.432    -0.136
	AlOH+2            5.991e-27   1.709e-27   -26.222   -26.767    -0.545
	AlSO4+            7.308e-30   5.341e-30   -29.136   -29.272    -0.136
	Al(SO4)2-         6.259e-30   4.574e-30   -29.204   -29.340    -0.136
	Al+3              6.404e-31   6.236e-32   -30.194   -31.205    -1.012
	AlHSO4+2          5.973e-40   1.704e-40   -39.224   -39.769    -0.545
Ba               3.398e-08
	BaSO4             2.522e-08   2.766e-08    -7.598    -7.558     0.040
	Ba+2              8.755e-09   2.038e-09    -8.058    -8.691    -0.633
	BaCO3             4.565e-12   5.008e-12   -11.341   -11.300     0.040
	BaHCO3+           9.754e-13   7.129e-13   -12.011   -12.147    -0.136
	BaOH+             2.607e-13   1.905e-13   -12.584   -12.720    -0.136
Br               2.000e-08
	Br-               2.000e-08   1.265e-08    -7.699    -7.898    -0.199
C(-4)            0.000e+00
	CH4               0.000e+00   0.000e+00  -128.107  -128.066     0.040
C(4)             1.040e-04
	HCO3-             5.179e-05   3.649e-05    -4.286    -4.438    -0.152
	NaCO3-            2.370e-05   1.732e-05    -4.625    -4.761    -0.136
	CO3-2             1.930e-05   4.756e-06    -4.715    -5.323    -0.608
	CaCO3             5.073e-06   5.565e-06    -5.295    -5.255     0.040
	NaHCO3            3.659e-06   4.014e-06    -5.437    -5.396     0.040
	CaHCO3+           4.602e-07   3.242e-07    -6.337    -6.489    -0.152
	CO2               2.711e-08   2.974e-08    -7.567    -7.527     0.040
	SrCO3             1.228e-09   1.347e-09    -8.911    -8.871     0.040
	SrHCO3+           3.514e-10   2.476e-10    -9.454    -9.606    -0.152
	BaCO3             4.565e-12   5.008e-12   -11.341   -11.300     0.040
	BaHCO3+           9.754e-13   7.129e-13   -12.011   -12.147    -0.136
Ca               6.004e-03
	CaSO4             3.431e-03   3.764e-03    -2.465    -2.424     0.040
	Ca+2              2.568e-03   6.965e-04    -2.590    -3.157    -0.567
	CaCO3             5.073e-06   5.565e-06    -5.295    -5.255     0.040
	CaHCO3+           4.602e-07   3.242e-07    -6.337    -6.489    -0.152
	CaOH+             4.363e-07   3.189e-07    -6.360    -6.496    -0.136
	CaHSO4+           1.085e-11   7.932e-12   -10.964   -11.101    -0.136
Cl               1.000e-03
	Cl-               1.000e-03   6.594e-04    -3.000    -3.181    -0.181
H(0)             7.529e-40
	H2                3.764e-40   4.130e-40   -39.424   -39.384     0.040
K                3.899e-18
	K+                3.327e-18   2.194e-18   -17.478   -17.659    -0.181
	KSO4-             5.713e-19   4.175e-19   -18.243   -18.379    -0.136
	KOH               1.913e-23   2.099e-23   -22.718   -22.678     0.040
N(-3)            0.000e+00
	NH4+              0.000e+00   0.000e+00   -49.732   -49.945    -0.212
	NH3               0.000e+00   0.000e+00   -49.785   -49.745     0.040
	NH4SO4-           0.000e+00   0.000e+00   -50.266   -50.402    -0.136
N(0)             7.719e-04
	N2                3.859e-04   4.234e-04    -3.413    -3.373     0.040
N(3)             2.142e-13
	NO2-              2.142e-13   1.355e-13   -12.669   -12.868    -0.199
N(5)             9.809e-06
	NO3-              9.809e-06   6.206e-06    -5.008    -5.207    -0.199
Na               3.102e-01
	Na+               2.738e-01   1.956e-01    -0.563    -0.709    -0.146
	NaSO4-            3.633e-02   2.655e-02    -1.440    -1.576    -0.136
	NaCO3-            2.370e-05   1.732e-05    -4.625    -4.761    -0.136
	NaHCO3            3.659e-06   4.014e-06    -5.437    -5.396     0.040
	NaOH              3.250e-06   3.565e-06    -5.488    -5.448     0.040
O(0)             4.390e-14
	O2                2.195e-14   2.408e-14   -13.659   -13.618     0.040
S(-2)            0.000e+00
	HS-               0.000e+00   0.000e+00  -122.098  -122.285    -0.187
	H2S               0.000e+00   0.000e+00  -124.827  -124.787     0.040
	S-2               0.000e+00   0.000e+00  -125.126  -125.759    -0.633
S(6)             1.605e-01
	SO4-2             1.207e-01   2.708e-02    -0.918    -1.567    -0.649
	NaSO4-            3.633e-02   2.655e-02    -1.440    -1.576    -0.136
	CaSO4             3.431e-03   3.764e-03    -2.465    -2.424     0.040
	SrSO4             2.135e-06   2.343e-06    -5.671    -5.630     0.040
	BaSO4             2.522e-08   2.766e-08    -7.598    -7.558     0.040
	HSO4-             1.296e-09   9.473e-10    -8.887    -9.024    -0.136
	CaHSO4+           1.085e-11   7.932e-12   -10.964   -11.101    -0.136
	KSO4-             5.713e-19   4.175e-19   -18.243   -18.379    -0.136
	AlSO4+            7.308e-30   5.341e-30   -29.136   -29.272    -0.136
	Al(SO4)2-         6.259e-30   4.574e-30   -29.204   -29.340    -0.136
	AlHSO4+2          5.973e-40   1.704e-40   -39.224   -39.769    -0.545
	NH4SO4-           0.000e+00   0.000e+00   -50.266   -50.402    -0.136
Si               3.206e-16
	H4SiO4            1.985e-16   2.177e-16   -15.702   -15.662     0.040
	H3SiO4-           1.221e-16   8.923e-17   -15.913   -16.049    -0.136
	H2SiO4-2          5.914e-20   1.687e-20   -19.228   -19.773    -0.545
Sr               3.778e-06
	SrSO4             2.135e-06   2.343e-06    -5.671    -5.630     0.040
	Sr+2              1.641e-06   4.436e-07    -5.785    -6.353    -0.568
	SrCO3             1.228e-09   1.347e-09    -8.911    -8.871     0.040
	SrHCO3+           3.514e-10   2.476e-10    -9.454    -9.606    -0.152
	SrOH+             9.036e-11   6.276e-11   -10.044   -10.202    -0.158

------------------------------Saturation indices-------------------------------

	Phase               SI log IAP  log KT

	Al(OH)3(a)      -13.68   -2.88   10.80  Al(OH)3
	Albite          -45.77  -63.78  -18.00  NaAlSi3O8
	Alunite         -56.36  -57.76   -1.40  KAl3(SO4)2(OH)6
	Anhydrite        -0.36   -4.72   -4.36  CaSO4
	Anorthite       -46.96  -66.67  -19.71  CaAl2Si2O8
	Aragonite        -0.14   -8.48   -8.34  CaCO3
	Barite           -0.29  -10.26   -9.97  BaSO4
	Ca-Montmorillonite -69.35 -114.38  -45.03  Ca0.165Al2.33Si3.67O10(OH)2
	Calcite           0.00   -8.48   -8.48  CaCO3
	Celestite        -1.29   -7.92   -6.63  SrSO4
	CH4(g)         -125.21 -128.07   -2.86  CH4
	Chalcedony      -12.10  -15.66   -3.55  SiO2
	CO2(g)           -6.06   -7.53   -1.47  CO2
	Gibbsite        -10.99   -2.88    8.11  Al(OH)3
	Gypsum           -0.15   -4.73   -4.58  CaSO4:2H2O
	H2(g)           -36.23  -39.38   -3.15  H2
	H2O(g)           -1.51   -0.00    1.51  H2O
	H2S(g)         -123.79 -124.79   -1.00  H2S
	Halite           -5.47   -3.89    1.58  NaCl
	K-feldspar      -60.15  -80.73  -20.57  KAlSi3O8
	K-mica          -76.52  -63.82   12.70  KAl3Si3O10(OH)2
	Kaolinite       -44.51  -37.07    7.43  Al2Si2O5(OH)4
	N2(g)            -0.11   -3.37   -3.26  N2
	NH3(g)          -51.51  -49.74    1.77  NH3
	O2(g)           -10.66  -13.62   -2.96  O2
	Quartz          -11.68  -15.66   -3.98  SiO2
	SiO2(a)         -12.94  -15.66   -2.71  SiO2
	Strontianite     -2.41  -11.68   -9.27  SrCO3
	Sulfur          -93.43  -88.55    4.88  S
	Witherite        -5.45  -14.01   -8.56  BaCO3

Time 0.0001. Cell 4: x=              1	y=              1	z=              0
Using solution 4.
Using exchange 4
Using surface 4.
Using pure phase assemblage 4.
Using solid solution assemblage 4.
Using gas phase 4.
Using kinetics 4.

Kinetics.

	Time:      0.0001 seconds
	Time step: 0.0001 seconds

	Rate name       Delta Moles Total Moles   Reactant        Coefficient

	K-feldspar       -1.110e-16   1.000e-00   K-feldspar                1
	Pyrite            0.000e+00   1.000e-00   Pyrite                    1

-----------------------------------Gas phase-----------------------------------


Total pressure:   0.7704   atmospheres
    Gas volume:   1.00e-00 liters

                                                      Moles in gas
                                         ----------------------------------
Component             log P           P     Initial       Final       Delta
N2(g)                 -0.11   7.704e-01   3.149e-02   3.149e-02   0.000e+00
O2(g)                -10.66   2.196e-11   8.977e-13   8.977e-13   0.000e+00

-------------------------------Phase assemblage--------------------------------

                                                       Moles in assemblage
	Phase               SI log IAP  log KT     Initial       Final       Delta

	Calcite           0.00   -8.48   -8.48   9.999e-01   9.999e-01  -1.520e-09

--------------------------------Solid solutions--------------------------------


	Solid solution         Component        Moles  Delta moles   Mole fract
	CaSrBaSO4                            1.94e+00
	                       Anhydrite     8.40e-01    -1.97e-06     4.33e-01
	                          Barite     1.00e-00    -9.71e-12     5.16e-01
	                       Celestite     9.99e-02    -1.88e-09     5.15e-02

------------------------------Surface composition------------------------------

Surf          
	  0.000e+00  Surface charge, eq
Surf          
	  1.000e+10  moles
	                                   Mole                     Log
	Species               Moles    Fraction    Molality    Molality

	Surf              1.000e+10       1.000   1.000e+10      10.000
	SurfA             1.046e-08       0.000   1.046e-08      -7.980

-----------------------------Exchange composition------------------------------

X                2.000e+00 mol

	                               Equiv-    Equivalent      Log 
	Species             Moles      alents      Fraction     Gamma

	NaX               1.691e+00   1.691e+00   8.454e-01    -0.146
	CaX2              1.545e-01   3.089e-01   1.545e-01    -0.567
	SrX2              1.271e-04   2.543e-04   1.271e-04    -0.568
	BaX2              6.784e-07   1.357e-06   6.784e-07    -0.633
	KX                1.030e-16   1.030e-16   5.149e-17    -0.181
	AlOHX2            4.433e-25   8.867e-25   4.434e-25    -0.545
	AlX3              3.230e-29   9.691e-29   4.845e-29    -1.012
	NH4X              4.554e-49   4.554e-49   2.277e-49    -0.212

-----------------------------Solution composition------------------------------

	Elements           Molality       Moles

	A                 9.537e-09   9.537e-09
	Al                1.069e-16   1.069e-16
	Ba                3.398e-08   3.398e-08
	Br                2.000e-08   2.000e-08
	C                 1.040e-04   1.040e-04
	Ca                6.004e-03   6.004e-03
	Cl                1.000e-03   1.000e-03
	K                 3.899e-18   3.899e-18
	N                 7.817e-04   7.817e-04
	Na                3.102e-01   3.102e-01
	S                 1.605e-01   1.605e-01
	Si                3.206e-16   3.206e-16
	Sr                3.778e-06   3.778e-06

----------------------------Description of solution----------------------------

                                       pH  =   9.444      Charge balance
                                       pe  =   8.673      Adjusted to redox equilibrium
                        Activity of water  =   0.993
                           Ionic strength  =   4.023e-01
                       Mass of water (kg)  =   1.000e-00
                 Total alkalinity (eq/kg)  =   1.982e-04
                       Total CO2 (mol/kg)  =   1.040e-04
                      Temperature (deg C)  =  25.000
                  Electrical balance (eq)  =  -4.182e-10
 Percent error, 100*(Cat-|An|)/(Cat+|An|)  =  -0.00
                               Iterations  =  38
                                  Total H  = 1.110124e+02
                                  Total O  = 5.614850e+01

----------------------------Distribution of species----------------------------

	                                           Log       Log         Log 
	Species            Molality    Activity  Molality  Activity     Gamma

	OH-               4.246e-05   2.762e-05    -4.372    -4.559    -0.187
	H+                4.660e-10   3.598e-10    -9.332    -9.444    -0.112
	H2O               5.551e+01   9.925e-01     1.744    -0.003     0.000
A                9.537e-09
	A                 9.537e-09   1.046e-08    -8.021    -7.980     0.040
Al               1.069e-16
	Al(OH)4-          1.069e-16   7.809e-17   -15.971   -16.107    -0.136
	Al(OH)3           1.369e-20   1.502e-20   -19.864   -19.823     0.040
	Al(OH)2+          5.056e-23   3.695e-23   -22.296   -22.432    -0.136
	AlOH+2            5.991e-27   1.709e-27   -26.222   -26.767    -0.545
	AlSO4+            7.308e-30   5.341e-30   -29.136   -29.272    -0.136
	Al(SO4)2-         6.259e-30   4.574e-30   -29.204   -29.340    -0.136
	Al+3              6.404e-31   6.236e-32   -30.194   -31.205    -1.012
	AlHSO4+2          5.973e-40   1.704e-40   -39.224   -39.769    -0.545
Ba               3.398e-08
	BaSO4             2.522e-08   2.766e-08    -7.598    -7.558     0.040
	Ba+2              8.755e-09   2.038e-09    -8.058    -8.691    -0.633
	BaCO3             4.565e-12   5.008e-12   -11.341   -11.300     0.040
	BaHCO3+           9.754e-13   7.129e-13   -12.011   -12.147    -0.136
	BaOH+             2.607e-13   1.905e-13   -12.584   -12.720    -0.136
Br               2.000e-08
	Br-               2.000e-08   1.265e-08    -7.699    -7.898    -0.199
C(-4)            0.000e+00
	CH4               0.000e+00   0.000e+00  -128.107  -128.066     0.040
C(4)             1.040e-04
	HCO3-             5.179e-05   3.649e-05    -4.286    -4.438    -0.152
	NaCO3-            2.370e-05   1.732e-05    -4.625    -4.761    -0.136
	CO3-2             1.930e-05   4.756e-06    -4.715    -5.323    -0.608
	CaCO3             5.073e-06   5.565e-06    -5.295    -5.255     0.040
	NaHCO3            3.659e-06   4.014e-06    -5.437    -5.396     0.040
	CaHCO3+           4.602e-07   3.242e-07    -6.337    -6.489    -0.152
	CO2               2.711e-08   2.974e-08    -7.567    -7.527     0.040
	SrCO3             1.228e-09   1.347e-09    -8.911    -8.871     0.040
	SrHCO3+           3.514e-10   2.476e-10    -9.454    -9.606    -0.152
	BaCO3             4.565e-12   5.008e-12   -11.341   -11.300     0.040
	BaHCO3+           9.754e-13   7.129e-13   -12.011   -12.147    -0.136
Ca               6.004e-03
	CaSO4             3.431e-03   3.764e-03    -2.465    -2.424     0.040
	Ca+2              2.568e-03   6.965e-04    -2.590    -3.157    -0.567
	CaCO3             5.073e-06   5.565e-06    -5.295    -5.255     0.040
	CaHCO3+           4.602e-07   3.242e-07    -6.337    -6.489    -0.152
	CaOH+             4.363e-07   3.189e-07    -6.360    -6.496    -0.136
	CaHSO4+           1.085e-11   7.932e-12   -10.964   -11.101    -0.136
Cl               1.000e-03
	Cl-               1.000e-03   6.594e-04    -3.000    -3.181    -0.181
H(0)             7.529e-40
	H2                3.764e-40   4.130e-40   -39.424   -39.384     0.040
K                3.899e-18
	K+                3.327e-18   2.194e-18   -17.478   -17.659    -0.181
	KSO4-             5.713e-19   4.175e-19   -18.243   -18.379    -0.136
	KOH               1.913e-23   2.099e-23   -22.718   -22.678     0.040
N(-3)            0.000e+00
	NH4+              0.000e+00   0.000e+00   -49.732   -49.945    -0.212
	NH3               0.000e+00   0.000e+00   -49.785   -49.745     0.040
	NH4SO4-           0.000e+00   0.000e+00   -50.266   -50.402    -0.136
N(0)             7.719e-04
	N2                3.859e-04   4.234e-04    -3.413    -3.373     0.040
N(3)             2.142e-13
	NO2-              2.142e-13   1.355e-13   -12.669   -12.868    -0.199
N(5)             9.809e-06
	NO3-              9.809e-06   6.206e-06    -5.008    -5.207    -0.199
Na               3.102e-01
	Na+               2.738e-01   1.956e-01    -0.563    -0.709    -0.146
	NaSO4-            3.633e-02   2.655e-02    -1.440    -1.576    -0.136
	NaCO3-            2.370e-05   1.732e-05    -4.625    -4.761    -0.136
	NaHCO3            3.659e-06   4.014e-06    -5.437    -5.396     0.040
	NaOH              3.250e-06   3.565e-06    -5.488    -5.448     0.040
O(0)             4.390e-14
	O2                2.195e-14   2.408e-14   -13.659   -13.618     0.040
S(-2)            0.000e+00
	HS-               0.000e+00   0.000e+00  -122.098  -122.285    -0.187
	H2S               0.000e+00   0.000e+00  -124.827  -124.787     0.040
	S-2               0.000e+00   0.000e+00  -125.126  -125.759    -0.633
S(6)             1.605e-01
	SO4-2             1.207e-01   2.708e-02    -0.918    -1.567    -0.649
	NaSO4-            3.633e-02   2.655e-02    -1.440    -1.576    -0.136
	CaSO4             3.431e-03   3.764e-03    -2.465    -2.424     0.040
	SrSO4             2.135e-06   2.343e-06    -5.671    -5.630     0.040
	BaSO4             2.522e-08   2.766e-08    -7.598    -7.558     0.040
	HSO4-             1.296e-09   9.473e-10    -8.887    -9.024    -0.136
	CaHSO4+           1.085e-11   7.932e-12   -10.964   -11.101    -0.136
	KSO4-             5.713e-19   4.175e-19   -18.243   -18.379    -0.136
	AlSO4+            7.308e-30   5.341e-30   -29.136   -29.272    -0.136
	Al(SO4)2-         6.259e-30   4.574e-30   -29.204   -29.340    -0.136
	AlHSO4+2          5.973e-40   1.704e-40   -39.224   -39.769    -0.545
	NH4SO4-           0.000e+00   0.000e+00   -50.266   -50.402    -0.136
Si               3.206e-16
	H4SiO4            1.985e-16   2.177e-16   -15.702   -15.662     0.040
	H3SiO4-           1.221e-16   8.923e-17   -15.913   -16.049    -0.136
	H2SiO4-2          5.914e-20   1.687e-20   -19.228   -19.773    -0.545
Sr               3.778e-06
	SrSO4             2.135e-06   2.343e-06    -5.671    -5.630     0.040
	Sr+2              1.641e-06   4.436e-07    -5.785    -6.353    -0.568
	SrCO3             1.228e-09   1.347e-09    -8.911    -8.871     0.040
	SrHCO3+           3.514e-10   2.476e-10    -9.454    -9.606    -0.152
	SrOH+             9.036e-11   6.276e-11   -10.044   -10.202    -0.158

------------------------------Saturation indices-------------------------------

	Phase               SI log IAP  log KT

	Al(OH)3(a)      -13.68   -2.88   10.80  Al(OH)3
	Albite          -45.77  -63.78  -18.00  NaAlSi3O8
	Alunite         -56.36  -57.76   -1.40  KAl3(SO4)2(OH)6
	Anhydrite        -0.36   -4.72   -4.36  CaSO4
	Anorthite       -46.96  -66.67  -19.71  CaAl2Si2O8
	Aragonite        -0.14   -8.48   -8.34  CaCO3
	Barite           -0.29  -10.26   -9.97  BaSO4
	Ca-Montmorillonite -69.35 -114.38  -45.03  Ca0.165Al2.33Si3.67O10(OH)2
	Calcite           0.00   -8.48   -8.48  CaCO3
	Celestite        -1.29   -7.92   -6.63  SrSO4
	CH4(g)         -125.21 -128.07   -2.86  CH4
	Chalcedony      -12.10  -15.66   -3.55  SiO2
	CO2(g)           -6.06   -7.53   -1.47  CO2
	Gibbsite        -10.99   -2.88    8.11  Al(OH)3
	Gypsum           -0.15   -4.73   -4.58  CaSO4:2H2O
	H2(g)           -36.23  -39.38   -3.15  H2
	H2O(g)           -1.51   -0.00    1.51  H2O
	H2S(g)         -123.79 -124.79   -1.00  H2S
	Halite           -5.47   -3.89    1.58  NaCl
	K-feldspar      -60.15  -80.73  -20.57  KAlSi3O8
	K-mica          -76.52  -63.82   12.70  KAl3Si3O10(OH)2
	Kaolinite       -44.51  -37.07    7.43  Al2Si2O5(OH)4
	N2(g)            -0.11   -3.37   -3.26  N2
	NH3(g)          -51.51  -49.74    1.77  NH3
	O2(g)           -10.66  -13.62   -2.96  O2
	Quartz          -11.68  -15.66   -3.98  SiO2
	SiO2(a)         -12.94  -15.66   -2.71  SiO2
	Strontianite     -2.41  -11.68   -9.27  SrCO3
	Sulfur          -93.43  -88.55    4.88  S
	Witherite        -5.45  -14.01   -8.56  BaCO3

Time 0.0001. Cell 5: x=              0	y=              0	z=              1
Cell is dry.
Time 0.0001. Cell 6: x=              1	y=              0	z=              1
Cell is dry.
Time 0.0001. Cell 7: x=              0	y=              1	z=              1
Cell is dry.
Time 0.0001. Cell 8: x=              1	y=              1	z=              1
Cell is dry.
Time 0.0001. Cell 9: x=              0	y=              0	z=              2
Cell is dry.
Time 0.0001. Cell 10: x=              1	y=              0	z=              2
Cell is dry.
Time 0.0001. Cell 11: x=              0	y=              1	z=              2
Cell is dry.
Time 0.0001. Cell 12: x=              1	y=              1	z=              2
Cell is dry.
Time 0.0001. Cell 13: x=              0	y=              0	z=              3
Cell is dry.
Time 0.0001. Cell 14: x=              1	y=              0	z=              3
Cell is dry.
Time 0.0001. Cell 15: x=              0	y=              1	z=              3
Cell is dry.
Time 0.0001. Cell 16: x=              1	y=              1	z=              3
Cell is dry.
Time 0.0001. Cell 17: x=              0	y=              0	z=              4
Cell is dry.
Time 0.0001. Cell 18: x=              1	y=              0	z=              4
Cell is dry.
Time 0.0001. Cell 19: x=              0	y=              1	z=              4
Cell is dry.
Time 0.0001. Cell 20: x=              1	y=              1	z=              4
Cell is dry.
Time 0.0002. Cell 1: x=              0	y=              0	z=              0
Using solution 1.
Using exchange 1
Using surface 1.
Using pure phase assemblage 1.
Using solid solution assemblage 1.
Using gas phase 1.
Using kinetics 1.

Kinetics.

	Time:      0.0002 seconds
	Time step: 0.0001 seconds

	Rate name       Delta Moles Total Moles   Reactant        Coefficient

	K-feldspar       -1.110e-16   1.000e-00   K-feldspar                1
	Pyrite            0.000e+00   1.000e+00   Pyrite                    1

-----------------------------------Gas phase-----------------------------------


Total pressure:   0.7704   atmospheres
    Gas volume:   1.00e+00 liters

                                                      Moles in gas
                                         ----------------------------------
Component             log P           P     Initial       Final       Delta
N2(g)                 -0.11   7.704e-01   3.149e-02   3.149e-02   0.000e+00
O2(g)                -10.66   2.196e-11   8.977e-13   8.977e-13   0.000e+00

-------------------------------Phase assemblage--------------------------------

                                                       Moles in assemblage
	Phase               SI log IAP  log KT     Initial       Final       Delta

	Calcite           0.00   -8.48   -8.48   9.999e-01   9.999e-01   7.994e-15

--------------------------------Solid solutions--------------------------------


	Solid solution         Component        Moles  Delta moles   Mole fract
	CaSrBaSO4                            1.94e+00
	                       Anhydrite     8.40e-01     7.22e-14     4.33e-01
	                          Barite     1.00e-00     0.00e+00     5.16e-01
	                       Celestite     9.99e-02     1.11e-16     5.15e-02

------------------------------Surface composition------------------------------

Surf          
	  0.000e+00  Surface charge, eq
Surf          
	  1.000e+10  moles
	                                   Mole                     Log
	Species               Moles    Fraction    Molality    Molality

	Surf              1.000e+10       1.000   1.000e+10      10.000
	SurfA             1.046e-08       0.000   1.046e-08      -7.980

-----------------------------Exchange composition------------------------------

X                2.000e+00 mol

	                               Equiv-    Equivalent      Log 
	Species             Moles      alents      Fraction     Gamma

	NaX               1.691e+00   1.691e+00   8.454e-01    -0.146
	CaX2              1.545e-01   3.089e-01   1.545e-01    -0.567
	SrX2              1.271e-04   2.543e-04   1.271e-04    -0.568
	BaX2              6.784e-07   1.357e-06   6.784e-07    -0.633
	KX                2.022e-16   2.022e-16   1.011e-16    -0.181
	AlOHX2            4.434e-25   8.867e-25   4.434e-25    -0.545
	AlX3              3.230e-29   9.691e-29   4.845e-29    -1.012
	NH4X              4.554e-49   4.554e-49   2.277e-49    -0.212

-----------------------------Solution composition------------------------------

	Elements           Molality       Moles

	A                 9.537e-09   9.537e-09
	Al                1.069e-16   1.069e-16
	Ba                3.398e-08   3.398e-08
	Br                2.000e-08   2.000e-08
	C                 1.040e-04   1.040e-04
	Ca                6.004e-03   6.004e-03
	Cl                1.000e-03   1.000e-03
	K                 7.655e-18   7.655e-18
	N                 7.817e-04   7.817e-04
	Na                3.102e-01   3.102e-01
	S                 1.605e-01   1.605e-01
	Si                3.206e-16   3.206e-16
	Sr                3.778e-06   3.778e-06

----------------------------Description of solution----------------------------

                                       pH  =   9.444      Charge balance
                                       pe  =   8.673      Adjusted to redox equilibrium
                        Activity of water  =   0.993
                           Ionic strength  =   4.023e-01
                       Mass of water (kg)  =   1.000e-00
                 Total alkalinity (eq/kg)  =   1.982e-04
                       Total CO2 (mol/kg)  =   1.040e-04
                      Temperature (deg C)  =  25.000
                  Electrical balance (eq)  =  -1.167e-10
 Percent error, 100*(Cat-|An|)/(Cat+|An|)  =  -0.00
                               Iterations  =  11
                                  Total H  = 1.110124e+02
                                  Total O  = 5.614850e+01

----------------------------Distribution of species----------------------------

	                                           Log       Log         Log 
	Species            Molality    Activity  Molality  Activity     Gamma

	OH-               4.246e-05   2.762e-05    -4.372    -4.559    -0.187
	H+                4.660e-10   3.598e-10    -9.332    -9.444    -0.112
	H2O               5.551e+01   9.925e-01     1.744    -0.003     0.000
A                9.537e-09
	A                 9.537e-09   1.046e-08    -8.021    -7.980     0.040
Al               1.069e-16
	Al(OH)4-          1.069e-16   7.809e-17   -15.971   -16.107    -0.136
	Al(OH)3           1.369e-20   1.502e-20   -19.864   -19.823     0.040
	Al(OH)2+          5.056e-23   3.695e-23   -22.296   -22.432    -0.136
	AlOH+2            5.991e-27   1.709e-27   -26.222   -26.767    -0.545
	AlSO4+            7.308e-30   5.341e-30   -29.136   -29.272    -0.136
	Al(SO4)2-         6.259e-30   4.574e-30   -29.204   -29.340    -0.136
	Al+3              6.404e-31   6.236e-32   -30.194   -31.205    -1.012
	AlHSO4+2          5.973e-40   1.704e-40   -39.224   -39.769    -0.545
Ba               3.398e-08
	BaSO4             2.522e-08   2.766e-08    -7.598    -7.558     0.040
	Ba+2              8.755e-09   2.038e-09    -8.058    -8.691    -0.633
	BaCO3             4.565e-12   5.008e-12   -11.341   -11.300     0.040
	BaHCO3+           9.754e-13   7.129e-13   -12.011   -12.147    -0.136
	BaOH+             2.607e-13   1.905e-13   -12.584   -12.720    -0.136
Br               2.000e-08
	Br-               2.000e-08   1.265e-08    -7.699    -7.898    -0.199
C(-4)            0.000e+00
	CH4               0.000e+00   0.000e+00  -128.107  -128.066     0.040
C(4)             1.040e-04
	HCO3-             5.179e-05   3.649e-05    -4.286    -4.438    -0.152
	NaCO3-            2.370e-05   1.732e-05    -4.625    -4.761    -0.136
	CO3-2             1.930e-05   4.756e-06    -4.715    -5.323    -0.608
	CaCO3             5.073e-06   5.565e-06    -5.295    -5.255     0.040
	NaHCO3            3.659e-06   4.014e-06    -5.437    -5.396     0.040
	CaHCO3+           4.602e-07   3.242e-07    -6.337    -6.489    -0.152
	CO2               2.711e-08   2.974e-08    -7.567    -7.527     0.040
	SrCO3             1.228e-09   1.347e-09    -8.911    -8.871     0.040
	SrHCO3+           3.514e-10   2.476e-10    -9.454    -9.606    -0.152
	BaCO3             4.565e-12   5.008e-12   -11.341   -11.300     0.040
	BaHCO3+           9.754e-13   7.129e-13   -12.011   -12.147    -0.136
Ca               6.004e-03
	CaSO4             3.431e-03   3.764e-03    -2.465    -2.424     0.040
	Ca+2              2.568e-03   6.965e-04    -2.590    -3.157    -0.567
	CaCO3             5.073e-06   5.565e-06    -5.295    -5.255     0.040
	CaHCO3+           4.602e-07   3.242e-07    -6.337    -6.489    -0.152
	CaOH+             4.363e-07   3.189e-07    -6.360    -6.496    -0.136
	CaHSO4+           1.085e-11   7.932e-12   -10.964   -11.101    -0.136
Cl               1.000e-03
	Cl-               1.000e-03   6.594e-04    -3.000    -3.181    -0.181
H(0)             7.529e-40
	H2                3.764e-40   4.130e-40   -39.424   -39.384     0.040
K                7.655e-18
	K+                6.533e-18   4.308e-18   -17.185   -17.366    -0.181
	KSO4-             1.122e-18   8.198e-19   -17.950   -18.086    -0.136
	KOH               3.757e-23   4.121e-23   -22.425   -22.385     0.040
N(-3)            0.000e+00
	NH4+              0.000e+00   0.000e+00   -49.732   -49.945    -0.212
	NH3               0.000e+00   0.000e+00   -49.785   -49.745     0.040
	NH4SO4-           0.000e+00   0.000e+00   -50.266   -50.402    -0.136
N(0)             7.719e-04
	N2                3.859e-04   4.234e-04    -3.413    -3.373     0.040
N(3)             2.142e-13
	NO2-              2.142e-13   1.355e-13   -12.669   -12.868    -0.199
N(5)             9.809e-06
	NO3-              9.809e-06   6.206e-06    -5.008    -5.207    -0.199
Na               3.102e-01
	Na+               2.738e-01   1.956e-01    -0.563    -0.709    -0.146
	NaSO4-            3.633e-02   2.655e-02    -1.440    -1.576    -0.136
	NaCO3-            2.370e-05   1.732e-05    -4.625    -4.761    -0.136
	NaHCO3            3.659e-06   4.014e-06    -5.437    -5.396     0.040
	NaOH              3.250e-06   3.565e-06    -5.488    -5.448     0.040
O(0)             4.390e-14
	O2                2.195e-14   2.408e-14   -13.659   -13.618     0.040
S(-2)            0.000e+00
	HS-               0.000e+00   0.000e+00  -122.098  -122.285    -0.187
	H2S               0.000e+00   0.000e+00  -124.827  -124.787     0.040
	S-2               0.000e+00   0.000e+00  -125.126  -125.759    -0.633
S(6)             1.605e-01
	SO4-2             1.207e-01   2.708e-02    -0.918    -1.567    -0.649
	NaSO4-            3.633e-02   2.655e-02    -1.440    -1.576    -0.136
	CaSO4             3.431e-03   3.764e-03    -2.465    -2.424     0.040
	SrSO4             2.135e-06   2.343e-06    -5.671    -5.630     0.040
	BaSO4             2.522e-08   2.766e-08    -7.598    -7.558     0.040
	HSO4-             1.296e-09   9.473e-10    -8.887    -9.024    -0.136
	CaHSO4+           1.085e-11   7.932e-12   -10.964   -11.101    -0.136
	KSO4-             1.122e-18   8.198e-19   -17.950   -18.086    -0.136
	AlSO4+            7.308e-30   5.341e-30   -29.136   -29.272    -0.136
	Al(SO4)2-         6.259e-30   4.574e-30   -29.204   -29.340    -0.136
	AlHSO4+2          5.973e-40   1.704e-40   -39.224   -39.769    -0.545
	NH4SO4-           0.000e+00   0.000e+00   -50.266   -50.402    -0.136
Si               3.206e-16
	H4SiO4            1.985e-16   2.177e-16   -15.702   -15.662     0.040
	H3SiO4-           1.221e-16   8.923e-17   -15.913   -16.049    -0.136
	H2SiO4-2          5.914e-20   1.687e-20   -19.228   -19.773    -0.545
Sr               3.778e-06
	SrSO4             2.135e-06   2.343e-06    -5.671    -5.630     0.040
	Sr+2              1.641e-06   4.436e-07    -5.785    -6.353    -0.568
	SrCO3             1.228e-09   1.347e-09    -8.911    -8.871     0.040
	SrHCO3+           3.514e-10   2.476e-10    -9.454    -9.606    -0.152
	SrOH+             9.036e-11   6.276e-11   -10.044   -10.202    -0.158

------------------------------Saturation indices-------------------------------

	Phase               SI log IAP  log KT

	Al(OH)3(a)      -13.68   -2.88   10.80  Al(OH)3
	Albite          -45.77  -63.78  -18.00  NaAlSi3O8
	Alunite         -56.07  -57.47   -1.40  KAl3(SO4)2(OH)6
	Anhydrite        -0.36   -4.72   -4.36  CaSO4
	Anorthite       -46.96  -66.67  -19.71  CaAl2Si2O8
	Aragonite        -0.14   -8.48   -8.34  CaCO3
	Barite           -0.29  -10.26   -9.97  BaSO4
	Ca-Montmorillonite -69.35 -114.38  -45.03  Ca0.165Al2.33Si3.67O10(OH)2
	Calcite           0.00   -8.48   -8.48  CaCO3
	Celestite        -1.29   -7.92   -6.63  SrSO4
	CH4(g)         -125.21 -128.07   -2.86  CH4
	Chalcedony      -12.10  -15.66   -3.55  SiO2
	CO2(g)           -6.06   -7.53   -1.47  CO2
	Gibbsite        -10.99   -2.88    8.11  Al(OH)3
	Gypsum           -0.15   -4.73   -4.58  CaSO4:2H2O
	H2(g)           -36.23  -39.38   -3.15  H2
	H2O(g)           -1.51   -0.00    1.51  H2O
	H2S(g)         -123.79 -124.79   -1.00  H2S
	Halite           -5.47   -3.89    1.58  NaCl
	K-feldspar      -59.86  -80.43  -20.57  KAlSi3O8
	K-mica          -76.23  -63.53   12.70  KAl3Si3O10(OH)2
	Kaolinite       -44.51  -37.07    7.43  Al2Si2O5(OH)4
	N2(g)            -0.11   -3.37   -3.26  N2
	NH3(g)          -51.51  -49.74    1.77  NH3
	O2(g)           -10.66  -13.62   -2.96  O2
	Quartz          -11.68  -15.66   -3.98  SiO2
	SiO2(a)         -12.94  -15.66   -2.71  SiO2
	Strontianite     -2.41  -11.68   -9.27  SrCO3
	Sulfur          -93.43  -88.55    4.88  S
	Witherite        -5.45  -14.01   -8.56  BaCO3

Time 0.0002. Cell 2: x=              1	y=              0	z=              0
Using solution 2.
Using exchange 2
Using surface 2.
Using pure phase assemblage 2.
Using solid solution assemblage 2.
Using gas phase 2.
Using kinetics 2.

Kinetics.

	Time:      0.0002 seconds
	Time step: 0.0001 seconds

	Rate name       Delta Moles Total Moles   Reactant        Coefficient

	K-feldspar       -1.110e-16   1.000e-00   K-feldspar                1
	Pyrite            0.000e+00   1.000e+00   Pyrite                    1

-----------------------------------Gas phase-----------------------------------


Total pressure:   0.7708   atmospheres
    Gas volume:   1.00e+00 liters

                                                      Moles in gas
                                         ----------------------------------
Component             log P           P     Initial       Final       Delta
N2(g)                 -0.11   7.708e-01   3.150e-02   3.150e-02   0.000e+00
O2(g)                -10.72   1.901e-11   7.770e-13   7.770e-13   0.000e+00

-------------------------------Phase assemblage--------------------------------

                                                       Moles in assemblage
	Phase               SI log IAP  log KT     Initial       Final       Delta

	Calcite           0.00   -8.48   -8.48   9.999e-01   9.999e-01   3.997e-15

--------------------------------Solid solutions--------------------------------


	Solid solution         Component        Moles  Delta moles   Mole fract
	CaSrBaSO4                            1.87e+00
	                       Anhydrite     7.67e-01    -2.36e-14     4.11e-01
	                          Barite     1.00e-00     0.00e+00     5.36e-01
	                       Celestite     9.98e-02    -2.78e-17     5.35e-02

------------------------------Surface composition------------------------------

Surf          
	  0.000e+00  Surface charge, eq
Surf          
	  1.000e+10  moles
	                                   Mole                     Log
	Species               Moles    Fraction    Molality    Molality

	Surf              1.000e+10       1.000   1.000e+10      10.000
	SurfA             1.066e-08       0.000   1.066e-08      -7.972

-----------------------------Exchange composition------------------------------

X                2.000e+00 mol

	                               Equiv-    Equivalent      Log 
	Species             Moles      alents      Fraction     Gamma

	NaX               1.852e+00   1.852e+00   9.261e-01    -0.150
	CaX2              7.385e-02   1.477e-01   7.385e-02    -0.593
	SrX2              6.723e-05   1.345e-04   6.723e-05    -0.599
	BaX2              3.787e-07   7.575e-07   3.787e-07    -0.687
	KX                2.010e-16   2.010e-16   1.005e-16    -0.197
	AlOHX2            1.706e-25   3.412e-25   1.706e-25    -0.528
	AlX3              9.882e-30   2.965e-29   1.482e-29    -1.071
	NH4X              3.555e-49   3.555e-49   1.777e-49    -0.237

-----------------------------Solution composition------------------------------

	Elements           Molality       Moles

	A                 9.344e-09   9.344e-09
	Al                1.083e-16   1.083e-16
	Ba                3.372e-08   3.372e-08
	Br                2.000e-08   2.000e-08
	C                 1.411e-04   1.411e-04
	Ca                5.273e-03   5.273e-03
	Cl                1.000e-03   1.000e-03
	K                 1.027e-17   1.027e-17
	N                 7.527e-04   7.527e-04
	Na                4.580e-01   4.580e-01
	S                 2.336e-01   2.336e-01
	Si                3.249e-16   3.249e-16
	Sr                3.644e-06   3.644e-06

----------------------------Description of solution----------------------------

                                       pH  =   9.501      Charge balance
                                       pe  =   8.601      Adjusted to redox equilibrium
                        Activity of water  =   0.989
                           Ionic strength  =   5.702e-01
                       Mass of water (kg)  =   1.000e-00
                 Total alkalinity (eq/kg)  =   2.724e-04
                       Total CO2 (mol/kg)  =   1.411e-04
                      Temperature (deg C)  =  25.000
                  Electrical balance (eq)  =  -4.181e-10
 Percent error, 100*(Cat-|An|)/(Cat+|An|)  =  -0.00
                               Iterations  =  11
                                  Total H  = 1.110124e+02
                                  Total O  = 5.644121e+01

----------------------------Distribution of species----------------------------

	                                           Log       Log         Log 
	Species            Molality    Activity  Molality  Activity     Gamma

	OH-               5.046e-05   3.141e-05    -4.297    -4.503    -0.206
	H+                4.148e-10   3.153e-10    -9.382    -9.501    -0.119
	H2O               5.551e+01   9.892e-01     1.744    -0.005     0.000
A                9.344e-09
	A                 9.344e-09   1.066e-08    -8.029    -7.972     0.057
Al               1.083e-16
	Al(OH)4-          1.083e-16   7.990e-17   -15.965   -16.097    -0.132
	Al(OH)3           1.185e-20   1.351e-20   -19.926   -19.869     0.057
	Al(OH)2+          3.962e-23   2.923e-23   -22.402   -22.534    -0.132
	AlOH+2            4.010e-27   1.189e-27   -26.397   -26.925    -0.528
	Al(SO4)2-         5.566e-30   4.107e-30   -29.254   -29.386    -0.132
	AlSO4+            5.365e-30   3.959e-30   -29.270   -29.402    -0.132
	Al+3              4.495e-31   3.816e-32   -30.347   -31.418    -1.071
	AlHSO4+2          3.733e-40   1.107e-40   -39.428   -39.956    -0.528
Ba               3.372e-08
	BaSO4             2.521e-08   2.875e-08    -7.598    -7.541     0.057
	Ba+2              8.502e-09   1.748e-09    -8.070    -8.757    -0.687
	BaCO3             4.811e-12   5.486e-12   -11.318   -11.261     0.057
	BaHCO3+           9.274e-13   6.844e-13   -12.033   -12.165    -0.132
	BaOH+             2.519e-13   1.859e-13   -12.599   -12.731    -0.132
Br               2.000e-08
	Br-               2.000e-08   1.204e-08    -7.699    -7.920    -0.221
C(-4)            0.000e+00
	CH4               0.000e+00   0.000e+00  -128.008  -127.951     0.057
C(4)             1.411e-04
	HCO3-             5.963e-05   4.084e-05    -4.225    -4.389    -0.164
	NaCO3-            4.289e-05   3.165e-05    -4.368    -4.500    -0.132
	CO3-2             2.762e-05   6.073e-06    -4.559    -5.217    -0.658
	NaHCO3            5.636e-06   6.426e-06    -5.249    -5.192     0.057
	CaCO3             4.880e-06   5.565e-06    -5.312    -5.255     0.057
	CaHCO3+           4.150e-07   2.842e-07    -6.382    -6.546    -0.164
	CO2               2.567e-08   2.927e-08    -7.591    -7.534     0.057
	SrCO3             1.293e-09   1.474e-09    -8.888    -8.831     0.057
	SrHCO3+           3.469e-10   2.375e-10    -9.460    -9.624    -0.164
	BaCO3             4.811e-12   5.486e-12   -11.318   -11.261     0.057
	BaHCO3+           9.274e-13   6.844e-13   -12.033   -12.165    -0.132
Ca               5.273e-03
	CaSO4             3.131e-03   3.571e-03    -2.504    -2.447     0.057
	Ca+2              2.136e-03   5.455e-04    -2.670    -3.263    -0.593
	CaCO3             4.880e-06   5.565e-06    -5.312    -5.255     0.057
	CaHCO3+           4.150e-07   2.842e-07    -6.382    -6.546    -0.164
	CaOH+             3.848e-07   2.840e-07    -6.415    -6.547    -0.132
	CaHSO4+           8.939e-12   6.596e-12   -11.049   -11.181    -0.132
Cl               1.000e-03
	Cl-               1.000e-03   6.348e-04    -3.000    -3.197    -0.197
H(0)             7.759e-40
	H2                3.880e-40   4.424e-40   -39.411   -39.354     0.057
K                1.027e-17
	K+                8.568e-18   5.439e-18   -17.067   -17.264    -0.197
	KSO4-             1.699e-18   1.254e-18   -17.770   -17.902    -0.132
	KOH               5.188e-23   5.916e-23   -22.285   -22.228     0.057
N(-3)            0.000e+00
	NH4+              0.000e+00   0.000e+00   -49.720   -49.957    -0.237
	NH3               0.000e+00   0.000e+00   -49.757   -49.700     0.057
	NH4SO4-           0.000e+00   0.000e+00   -50.199   -50.331    -0.132
N(0)             7.429e-04
	N2                3.715e-04   4.236e-04    -3.430    -3.373     0.057
N(3)             2.302e-13
	NO2-              2.302e-13   1.385e-13   -12.638   -12.858    -0.221
N(5)             9.809e-06
	NO3-              9.809e-06   5.903e-06    -5.008    -5.229    -0.221
Na               4.580e-01
	Na+               3.956e-01   2.798e-01    -0.403    -0.553    -0.150
	NaSO4-            6.236e-02   4.601e-02    -1.205    -1.337    -0.132
	NaCO3-            4.289e-05   3.165e-05    -4.368    -4.500    -0.132
	NaHCO3            5.636e-06   6.426e-06    -5.249    -5.192     0.057
	NaOH              5.087e-06   5.800e-06    -5.294    -5.237     0.057
O(0)             3.656e-14
	O2                1.828e-14   2.084e-14   -13.738   -13.681     0.057
S(-2)            0.000e+00
	HS-               0.000e+00   0.000e+00  -121.927  -122.133    -0.206
[...]
	KSO4-             5.713e-14   4.175e-14   -13.243   -13.379    -0.136
	AlSO4+            7.308e-25   5.341e-25   -24.136   -24.272    -0.136
	Al(SO4)2-         6.259e-25   4.574e-25   -24.204   -24.340    -0.136
	FeSO4             3.673e-33   4.030e-33   -32.435   -32.395     0.040
	AlHSO4+2          5.973e-35   1.704e-35   -34.224   -34.769    -0.545
	FeSO4+            1.529e-35   1.118e-35   -34.815   -34.952    -0.136
	Fe(SO4)2-         9.062e-36   6.623e-36   -35.043   -35.179    -0.136
	FeHSO4+           0.000e+00   0.000e+00   -40.885   -41.021    -0.136
	FeHSO4+2          0.000e+00   0.000e+00   -43.423   -43.968    -0.545
	NH4SO4-           0.000e+00   0.000e+00   -50.266   -50.402    -0.136
Si               3.206e-11
	H4SiO4            1.985e-11   2.177e-11   -10.702   -10.662     0.040
	H3SiO4-           1.221e-11   8.923e-12   -10.913   -11.049    -0.136
	H2SiO4-2          5.914e-15   1.687e-15   -14.228   -14.773    -0.545
Sr               3.778e-06
	SrSO4             2.135e-06   2.343e-06    -5.671    -5.630     0.040
	Sr+2              1.641e-06   4.436e-07    -5.785    -6.353    -0.568
	SrCO3             1.228e-09   1.347e-09    -8.911    -8.871     0.040
	SrHCO3+           3.514e-10   2.476e-10    -9.454    -9.606    -0.152
	SrOH+             9.036e-11   6.276e-11   -10.044   -10.202    -0.158

------------------------------Saturation indices-------------------------------

	Phase               SI log IAP  log KT

	Al(OH)3(a)       -8.68    2.12   10.80  Al(OH)3
	Albite          -25.77  -43.78  -18.00  NaAlSi3O8
	Alunite         -36.36  -37.76   -1.40  KAl3(SO4)2(OH)6
	Anhydrite        -0.36   -4.72   -4.36  CaSO4
	Anorthite       -26.96  -46.67  -19.71  CaAl2Si2O8
	Aragonite        -0.14   -8.48   -8.34  CaCO3
	Barite           -0.29  -10.26   -9.97  BaSO4
	Ca-Montmorillonite -39.35  -84.38  -45.03  Ca0.165Al2.33Si3.67O10(OH)2
	Calcite           0.00   -8.48   -8.48  CaCO3
	Celestite        -1.29   -7.92   -6.63  SrSO4
	CH4(g)         -125.21 -128.07   -2.86  CH4
	Chalcedony       -7.10  -10.66   -3.55  SiO2
	CO2(g)           -6.06   -7.53   -1.47  CO2
	Fe(OH)3(a)      -13.99   -9.10    4.89  Fe(OH)3
	FeS(ppt)       -142.00 -145.92   -3.92  FeS
	Gibbsite         -5.99    2.12    8.11  Al(OH)3
	Goethite         -8.10   -9.10   -1.00  FeOOH
	Gypsum           -0.15   -4.73   -4.58  CaSO4:2H2O
	H2(g)           -36.23  -39.38   -3.15  H2
	H2O(g)           -1.51   -0.00    1.51  H2O
	H2S(g)         -123.79 -124.79   -1.00  H2S
	Halite           -5.47   -3.89    1.58  NaCl
	Hematite        -14.19  -18.19   -4.01  Fe2O3
	Jarosite-K      -62.21  -71.42   -9.21  KFe3(SO4)2(OH)6
	K-feldspar      -35.15  -55.73  -20.57  KAlSi3O8
	K-mica          -41.52  -28.82   12.70  KAl3Si3O10(OH)2
	Kaolinite       -24.51  -17.07    7.43  Al2Si2O5(OH)4
	Mackinawite    -141.27 -145.92   -4.65  FeS
	Melanterite     -32.46  -34.67   -2.21  FeSO4:7H2O
	N2(g)            -0.11   -3.37   -3.26  N2
	NH3(g)          -51.51  -49.74    1.77  NH3
	O2(g)           -10.66  -13.62   -2.96  O2
	Pyrite         -222.93 -241.41  -18.48  FeS2
	Quartz           -6.68  -10.66   -3.98  SiO2
	Siderite        -27.51  -38.40  -10.89  FeCO3
	SiO2(a)          -7.94  -10.66   -2.71  SiO2
	Strontianite     -2.41  -11.68   -9.27  SrCO3
	Sulfur          -93.43  -88.55    4.88  S
	Witherite        -5.45  -14.01   -8.56  BaCO3

Time 10. Cell 4: x=              1	y=              1	z=              0
Using solution 4.
Using exchange 4
Using surface 4.
Using pure phase assemblage 4.
Using solid solution assemblage 4.
Using gas phase 4.
Using kinetics 4.

Kinetics.

	Time:      10 seconds
	Time step: 1 seconds

	Rate name       Delta Moles Total Moles   Reactant        Coefficient

	K-feldspar       -1.069e-12   1.000e-00   K-feldspar                1
	Pyrite            0.000e+00   1.000e+00   Pyrite                    1

-----------------------------------Gas phase-----------------------------------


Total pressure:   0.7704   atmospheres
    Gas volume:   1.00e+00 liters

                                                      Moles in gas
                                         ----------------------------------
Component             log P           P     Initial       Final       Delta
N2(g)                 -0.11   7.704e-01   3.149e-02   3.149e-02   0.000e+00
O2(g)                -10.66   2.196e-11   8.977e-13   8.977e-13   0.000e+00

-------------------------------Phase assemblage--------------------------------

                                                       Moles in assemblage
	Phase               SI log IAP  log KT     Initial       Final       Delta

	Calcite           0.00   -8.48   -8.48   9.999e-01   9.999e-01  -6.233e-13

--------------------------------Solid solutions--------------------------------


	Solid solution         Component        Moles  Delta moles   Mole fract
	CaSrBaSO4                            1.94e+00
	                       Anhydrite     8.40e-01     3.20e-11     4.33e-01
	                          Barite     1.00e-00     2.22e-16     5.16e-01
	                       Celestite     9.99e-02     3.36e-14     5.15e-02

------------------------------Surface composition------------------------------

Surf          
	  0.000e+00  Surface charge, eq
Surf          
	  1.000e+10  moles
	                                   Mole                     Log
	Species               Moles    Fraction    Molality    Molality

	Surf              1.000e+10       1.000   1.000e+10      10.000
	SurfA             1.047e-08       0.000   1.047e-08      -7.980

-----------------------------Exchange composition------------------------------

X                2.000e+00 mol

	                               Equiv-    Equivalent      Log 
	Species             Moles      alents      Fraction     Gamma

	NaX               1.691e+00   1.691e+00   8.454e-01    -0.146
	CaX2              1.545e-01   3.089e-01   1.545e-01    -0.567
	SrX2              1.271e-04   2.543e-04   1.271e-04    -0.568
	BaX2              6.784e-07   1.357e-06   6.784e-07    -0.633
	KX                1.030e-11   1.030e-11   5.149e-12    -0.181
	AlOHX2            4.433e-20   8.867e-20   4.433e-20    -0.545
	AlX3              3.230e-24   9.691e-24   4.845e-24    -1.012
	FeX2              8.246e-32   1.649e-31   8.246e-32    -0.574
	NH4X              4.554e-49   4.554e-49   2.277e-49    -0.212

-----------------------------Solution composition------------------------------

	Elements           Molality       Moles

	A                 9.543e-09   9.543e-09
	Al                1.069e-11   1.069e-11
	Ba                3.398e-08   3.398e-08
	Br                2.002e-08   2.002e-08
	C                 1.040e-04   1.040e-04
	Ca                6.004e-03   6.004e-03
	Cl                1.000e-03   1.000e-03
	Fe                9.486e-22   9.486e-22
	K                 3.899e-13   3.899e-13
	N                 7.817e-04   7.817e-04
	Na                3.102e-01   3.102e-01
	S                 1.605e-01   1.605e-01
	Si                3.206e-11   3.206e-11
	Sr                3.778e-06   3.778e-06

----------------------------Description of solution----------------------------

                                       pH  =   9.444      Charge balance
                                       pe  =   8.673      Adjusted to redox equilibrium
                        Activity of water  =   0.993
                           Ionic strength  =   4.023e-01
                       Mass of water (kg)  =   1.000e-00
                 Total alkalinity (eq/kg)  =   1.982e-04
                       Total CO2 (mol/kg)  =   1.040e-04
                      Temperature (deg C)  =  25.000
                  Electrical balance (eq)  =  -3.633e-10
 Percent error, 100*(Cat-|An|)/(Cat+|An|)  =  -0.00
                               Iterations  =  10
                                  Total H  = 1.110124e+02
                                  Total O  = 5.614850e+01

----------------------------Distribution of species----------------------------

	                                           Log       Log         Log 
	Species            Molality    Activity  Molality  Activity     Gamma

	OH-               4.246e-05   2.762e-05    -4.372    -4.559    -0.187
	H+                4.660e-10   3.598e-10    -9.332    -9.444    -0.112
	H2O               5.551e+01   9.925e-01     1.744    -0.003     0.000
A                9.543e-09
	A                 9.543e-09   1.047e-08    -8.020    -7.980     0.040
Al               1.069e-11
	Al(OH)4-          1.069e-11   7.809e-12   -10.971   -11.107    -0.136
	Al(OH)3           1.369e-15   1.502e-15   -14.864   -14.823     0.040
	Al(OH)2+          5.056e-18   3.695e-18   -17.296   -17.432    -0.136
	AlOH+2            5.991e-22   1.709e-22   -21.223   -21.767    -0.545
	AlSO4+            7.308e-25   5.341e-25   -24.136   -24.272    -0.136
	Al(SO4)2-         6.259e-25   4.574e-25   -24.204   -24.340    -0.136
	Al+3              6.404e-26   6.236e-27   -25.194   -26.205    -1.012
	AlHSO4+2          5.973e-35   1.704e-35   -34.224   -34.769    -0.545
Ba               3.398e-08
	BaSO4             2.522e-08   2.766e-08    -7.598    -7.558     0.040
	Ba+2              8.755e-09   2.038e-09    -8.058    -8.691    -0.633
	BaCO3             4.565e-12   5.008e-12   -11.341   -11.300     0.040
	BaHCO3+           9.754e-13   7.129e-13   -12.011   -12.147    -0.136
	BaOH+             2.607e-13   1.905e-13   -12.584   -12.720    -0.136
Br               2.002e-08
	Br-               2.002e-08   1.267e-08    -7.699    -7.897    -0.199
C(-4)            0.000e+00
	CH4               0.000e+00   0.000e+00  -128.107  -128.066     0.040
C(4)             1.040e-04
	HCO3-             5.179e-05   3.649e-05    -4.286    -4.438    -0.152
	NaCO3-            2.370e-05   1.732e-05    -4.625    -4.761    -0.136
	CO3-2             1.930e-05   4.756e-06    -4.715    -5.323    -0.608
	CaCO3             5.073e-06   5.565e-06    -5.295    -5.255     0.040
	NaHCO3            3.659e-06   4.014e-06    -5.437    -5.396     0.040
	CaHCO3+           4.602e-07   3.242e-07    -6.337    -6.489    -0.152
	CO2               2.711e-08   2.974e-08    -7.567    -7.527     0.040
	SrCO3             1.228e-09   1.347e-09    -8.911    -8.871     0.040
	SrHCO3+           3.514e-10   2.476e-10    -9.454    -9.606    -0.152
	BaCO3             4.565e-12   5.008e-12   -11.341   -11.300     0.040
	BaHCO3+           9.754e-13   7.129e-13   -12.011   -12.147    -0.136
	FeCO3             8.702e-35   9.546e-35   -34.060   -34.020     0.040
	FeHCO3+           4.178e-36   3.053e-36   -35.379   -35.515    -0.136
Ca               6.004e-03
	CaSO4             3.431e-03   3.764e-03    -2.465    -2.424     0.040
	Ca+2              2.568e-03   6.965e-04    -2.590    -3.157    -0.567
	CaCO3             5.073e-06   5.565e-06    -5.295    -5.255     0.040
	CaHCO3+           4.602e-07   3.242e-07    -6.337    -6.489    -0.152
	CaOH+             4.363e-07   3.189e-07    -6.360    -6.496    -0.136
	CaHSO4+           1.085e-11   7.932e-12   -10.964   -11.101    -0.136
Cl               1.000e-03
	Cl-               1.000e-03   6.594e-04    -3.000    -3.181    -0.181
	FeCl+             1.042e-36   7.616e-37   -35.982   -36.118    -0.136
	FeCl+2            2.628e-39   7.496e-40   -38.580   -39.125    -0.545
	FeCl2+            0.000e+00   0.000e+00   -41.520   -41.656    -0.136
	FeCl3             0.000e+00   0.000e+00   -45.877   -45.837     0.040
Fe(2)            7.905e-33
	FeSO4             3.673e-33   4.030e-33   -32.435   -32.395     0.040
	Fe+2              3.141e-33   8.367e-34   -32.503   -33.077    -0.574
	FeOH+             9.988e-34   7.299e-34   -33.001   -33.137    -0.136
	FeCO3             8.702e-35   9.546e-35   -34.060   -34.020     0.040
	FeHCO3+           4.178e-36   3.053e-36   -35.379   -35.515    -0.136
	FeCl+             1.042e-36   7.616e-37   -35.982   -36.118    -0.136
	FeHSO4+           0.000e+00   0.000e+00   -40.885   -41.021    -0.136
	Fe(HS)2           0.000e+00   0.000e+00  -268.737  -268.697     0.040
	Fe(HS)3-          0.000e+00   0.000e+00  -388.808  -388.944    -0.136
Fe(3)            9.486e-22
	Fe(OH)4-          7.494e-22   5.477e-22   -21.125   -21.261    -0.136
	Fe(OH)3           1.984e-22   2.177e-22   -21.702   -21.662     0.040
	Fe(OH)2+          8.381e-25   6.125e-25   -24.077   -24.213    -0.136
	FeOH+2            2.350e-30   6.705e-31   -29.629   -30.174    -0.545
	FeSO4+            1.529e-35   1.118e-35   -34.815   -34.952    -0.136
	Fe(SO4)2-         9.062e-36   6.623e-36   -35.043   -35.179    -0.136
	Fe+3              3.865e-37   3.764e-38   -36.413   -37.424    -1.012
	FeCl+2            2.628e-39   7.496e-40   -38.580   -39.125    -0.545
	FeCl2+            0.000e+00   0.000e+00   -41.520   -41.656    -0.136
	FeHSO4+2          0.000e+00   0.000e+00   -43.423   -43.968    -0.545
	FeCl3             0.000e+00   0.000e+00   -45.877   -45.837     0.040
	Fe2(OH)2+4        0.000e+00   0.000e+00   -56.738   -58.917    -2.179
	Fe3(OH)4+5        0.000e+00   0.000e+00   -77.405   -80.810    -3.405
H(0)             7.529e-40
	H2                3.764e-40   4.130e-40   -39.424   -39.384     0.040
K                3.899e-13
	K+                3.327e-13   2.194e-13   -12.478   -12.659    -0.181
	KSO4-             5.713e-14   4.175e-14   -13.243   -13.379    -0.136
	KOH               1.913e-18   2.099e-18   -17.718   -17.678     0.040
N(-3)            0.000e+00
	NH4+              0.000e+00   0.000e+00   -49.732   -49.945    -0.212
	NH3               0.000e+00   0.000e+00   -49.785   -49.745     0.040
	NH4SO4-           0.000e+00   0.000e+00   -50.266   -50.402    -0.136
N(0)             7.719e-04
	N2                3.859e-04   4.234e-04    -3.413    -3.373     0.040
N(3)             2.142e-13
	NO2-              2.142e-13   1.355e-13   -12.669   -12.868    -0.199
N(5)             9.809e-06
	NO3-              9.809e-06   6.206e-06    -5.008    -5.207    -0.199
Na               3.102e-01
	Na+               2.738e-01   1.956e-01    -0.563    -0.709    -0.146
	NaSO4-            3.633e-02   2.655e-02    -1.440    -1.576    -0.136
	NaCO3-            2.370e-05   1.732e-05    -4.625    -4.761    -0.136
	NaHCO3            3.659e-06   4.014e-06    -5.437    -5.396     0.040
	NaOH              3.250e-06   3.565e-06    -5.488    -5.448     0.040
O(0)             4.390e-14
	O2                2.195e-14   2.408e-14   -13.659   -13.618     0.040
S(-2)            0.000e+00
	HS-               0.000e+00   0.000e+00  -122.098  -122.285    -0.187
	H2S               0.000e+00   0.000e+00  -124.827  -124.787     0.040
	S-2               0.000e+00   0.000e+00  -125.126  -125.759    -0.633
	Fe(HS)2           0.000e+00   0.000e+00  -268.737  -268.697     0.040
	Fe(HS)3-          0.000e+00   0.000e+00  -388.808  -388.944    -0.136
S(6)             1.605e-01
	SO4-2             1.207e-01   2.708e-02    -0.918    -1.567    -0.649
	NaSO4-            3.633e-02   2.655e-02    -1.440    -1.576    -0.136
	CaSO4             3.431e-03   3.764e-03    -2.465    -2.424     0.040
	SrSO4             2.135e-06   2.343e-06    -5.671    -5.630     0.040
	BaSO4             2.522e-08   2.766e-08    -7.598    -7.558     0.040
	HSO4-             1.296e-09   9.473e-10    -8.887    -9.024    -0.136
	CaHSO4+           1.085e-11   7.932e-12   -10.964   -11.101    -0.136
	KSO4-             5.713e-14   4.175e-14   -13.243   -13.379    -0.136
	AlSO4+            7.308e-25   5.341e-25   -24.136   -24.272    -0.136
	Al(SO4)2-         6.259e-25   4.574e-25   -24.204   -24.340    -0.136
	FeSO4             3.673e-33   4.030e-33   -32.435   -32.395     0.040
	AlHSO4+2          5.973e-35   1.704e-35   -34.224   -34.769    -0.545
	FeSO4+            1.529e-35   1.118e-35   -34.815   -34.952    -0.136
	Fe(SO4)2-         9.062e-36   6.623e-36   -35.043   -35.179    -0.136
	FeHSO4+           0.000e+00   0.000e+00   -40.885   -41.021    -0.136
	FeHSO4+2          0.000e+00   0.000e+00   -43.423   -43.968    -0.545
	NH4SO4-           0.000e+00   0.000e+00   -50.266   -50.402    -0.136
Si               3.206e-11
	H4SiO4            1.985e-11   2.177e-11   -10.702   -10.662     0.040
	H3SiO4-           1.221e-11   8.923e-12   -10.913   -11.049    -0.136
	H2SiO4-2          5.914e-15   1.687e-15   -14.228   -14.773    -0.545
Sr               3.778e-06
	SrSO4             2.135e-06   2.343e-06    -5.671    -5.630     0.040
	Sr+2              1.641e-06   4.436e-07    -5.785    -6.353    -0.568
	SrCO3             1.228e-09   1.347e-09    -8.911    -8.871     0.040
	SrHCO3+           3.514e-10   2.476e-10    -9.454    -9.606    -0.152
	SrOH+             9.036e-11   6.276e-11   -10.044   -10.202    -0.158

------------------------------Saturation indices-------------------------------

	Phase               SI log IAP  log KT

	Al(OH)3(a)       -8.68    2.12   10.80  Al(OH)3
	Albite          -25.77  -43.78  -18.00  NaAlSi3O8
	Alunite         -36.36  -37.76   -1.40  KAl3(SO4)2(OH)6
	Anhydrite        -0.36   -4.72   -4.36  CaSO4
	Anorthite       -26.96  -46.67  -19.71  CaAl2Si2O8
	Aragonite        -0.14   -8.48   -8.34  CaCO3
	Barite           -0.29  -10.26   -9.97  BaSO4
	Ca-Montmorillonite -39.35  -84.38  -45.03  Ca0.165Al2.33Si3.67O10(OH)2
	Calcite           0.00   -8.48   -8.48  CaCO3
	Celestite        -1.29   -7.92   -6.63  SrSO4
	CH4(g)         -125.21 -128.07   -2.86  CH4
	Chalcedony       -7.10  -10.66   -3.55  SiO2
	CO2(g)           -6.06   -7.53   -1.47  CO2
	Fe(OH)3(a)      -13.99   -9.10    4.89  Fe(OH)3
	FeS(ppt)       -142.00 -145.92   -3.92  FeS
	Gibbsite         -5.99    2.12    8.11  Al(OH)3
	Goethite         -8.10   -9.10   -1.00  FeOOH
	Gypsum           -0.15   -4.73   -4.58  CaSO4:2H2O
	H2(g)           -36.23  -39.38   -3.15  H2
	H2O(g)           -1.51   -0.00    1.51  H2O
	H2S(g)         -123.79 -124.79   -1.00  H2S
	Halite           -5.47   -3.89    1.58  NaCl
	Hematite        -14.19  -18.19   -4.01  Fe2O3
	Jarosite-K      -62.21  -71.42   -9.21  KFe3(SO4)2(OH)6
	K-feldspar      -35.15  -55.73  -20.57  KAlSi3O8
	K-mica          -41.52  -28.82   12.70  KAl3Si3O10(OH)2
	Kaolinite       -24.51  -17.07    7.43  Al2Si2O5(OH)4
	Mackinawite    -141.27 -145.92   -4.65  FeS
	Melanterite     -32.46  -34.67   -2.21  FeSO4:7H2O
	N2(g)            -0.11   -3.37   -3.26  N2
	NH3(g)          -51.51  -49.74    1.77  NH3
	O2(g)           -10.66  -13.62   -2.96  O2
	Pyrite         -222.93 -241.41  -18.48  FeS2
	Quartz           -6.68  -10.66   -3.98  SiO2
	Siderite        -27.51  -38.40  -10.89  FeCO3
	SiO2(a)          -7.94  -10.66   -2.71  SiO2
	Strontianite     -2.41  -11.68   -9.27  SrCO3
	Sulfur          -93.43  -88.55    4.88  S
	Witherite        -5.45  -14.01   -8.56  BaCO3

Time 10. Cell 5: x=              0	y=              0	z=              1
Cell is dry.
Time 10. Cell 6: x=              1	y=              0	z=              1
Cell is dry.
Time 10. Cell 7: x=              0	y=              1	z=              1
Cell is dry.
Time 10. Cell 8: x=              1	y=              1	z=              1
Cell is dry.
Time 10. Cell 9: x=              0	y=              0	z=              2
Cell is dry.
Time 10. Cell 10: x=              1	y=              0	z=              2
Cell is dry.
Time 10. Cell 11: x=              0	y=              1	z=              2
Cell is dry.
Time 10. Cell 12: x=              1	y=              1	z=              2
Cell is dry.
Time 10. Cell 13: x=              0	y=              0	z=              3
Cell is dry.
Time 10. Cell 14: x=              1	y=              0	z=              3
Cell is dry.
Time 10. Cell 15: x=              0	y=              1	z=              3
Cell is dry.
Time 10. Cell 16: x=              1	y=              1	z=              3
Cell is dry.
Time 10. Cell 17: x=              0	y=              0	z=              4
Cell is dry.
Time 10. Cell 18: x=              1	y=              0	z=              4
Cell is dry.
Time 10. Cell 19: x=              0	y=              1	z=              4
Cell is dry.
Time 10. Cell 20: x=              1	y=              1	z=              4
Cell is dry.
