Output file:    print_check_transient.chem.txt
Chemistry file: print_check_transient.chem.dat
Database file:  phast.dat

------------------
Reading data base.
------------------

	SOLUTION_MASTER_SPECIES
	SOLUTION_SPECIES
	PHASES
	EXCHANGE_MASTER_SPECIES
	EXCHANGE_SPECIES
	SURFACE_MASTER_SPECIES
	SURFACE_SPECIES
	RATES
	END
------------------------------------
Reading input data for simulation 1.
------------------------------------

	SURFACE_MASTER_SPECIES
	        Surf    SurfOH
	SURFACE_SPECIES
	        SurfOH = SurfOH
	                log_k   0.0
	        SurfOH  + H+ = SurfOH2+
	                log_k   7.29
	        SurfOH = SurfO- + H+
	                log_k   -8.93
	        SurfOH + AsO4-3 + 3H+ = SurfH2AsO4 + H2O
	                log_k   29.31
	        SurfOH + AsO4-3 + 2H+ = SurfHAsO4- + H2O
	                log_k   23.51
	        SurfOH + AsO4-3 = SurfOHAsO4-3
	                log_k   10.58
	SOLUTION_MASTER_SPECIES
	        As       H3AsO4        -1.0     74.9216         74.9216
	SOLUTION_SPECIES
		H3AsO4 = H2AsO4- + H+
		log_k	-2.3
		delta_h	-7.066	kJ
		H3AsO4 = HAsO4-2 + 2H+
		log_k	-9.46
		delta_h	-3.846	kJ
		H3AsO4 = AsO4-3 + 3H+
		log_k	-21.11
		delta_h	14.354	kJ
	        H3AsO4 = H2AsO4- + H+ 
	        log_k           -2.243
	        delta_h -1.69 kcal
	        H3AsO4 = HAsO4-2 + 2H+ 
	        log_k           -9.001
	        delta_h -0.92 kcal
	        H3AsO4 = AsO4-3 + 3H+
	        log_k           -20.597
	        delta_h 3.43 kcal
	        H3AsO4 = H3AsO4
	        log_k           0.0
	        H3AsO4 = AsO4-3 + 3H+
	        log_k   -20.7
	        H+ + AsO4-3 = HAsO4-2
	        log_k   11.50
	        2H+ + AsO4-3 = H2AsO4-
	        log_k           18.46
	SOLUTION 1 20 x precipitation
	        pH      4.6
	        pe      4.0     O2(g)   -0.7
	        temp    25.
	        units   mmol/kgw
	        Ca      .191625
	        Mg      .035797
	        Na      .122668
	        Cl      .133704
	        C       .01096
	        S       .235153         charge
	END
-------------------------------------------
Beginning of initial solution calculations.
-------------------------------------------

Initial solution 1.	20 x precipitation

-----------------------------Solution composition------------------------------

	Elements           Molality       Moles

	C                 1.096e-05   1.096e-05
	Ca                1.916e-04   1.916e-04
	Cl                1.337e-04   1.337e-04
	Mg                3.580e-05   3.580e-05
	Na                1.227e-04   1.227e-04
	S                 2.351e-04   2.351e-04  Charge balance

----------------------------Description of solution----------------------------

                                       pH  =   4.600    
                                       pe  =  16.005      Equilibrium with O2(g)
                        Activity of water  =   1.000
                           Ionic strength  =   1.035e-03
                       Mass of water (kg)  =   1.000e+00
                 Total alkalinity (eq/kg)  =  -2.630e-05
                       Total CO2 (mol/kg)  =   1.096e-05
                      Temperature (deg C)  =  25.000
                  Electrical balance (eq)  =   7.121e-16
 Percent error, 100*(Cat-|An|)/(Cat+|An|)  =      0
                               Iterations  =   9
                                  Total H  = 1.110125e+02
                                  Total O  = 5.550762e+01

----------------------------Distribution of species----------------------------

                                                   Log       Log         Log 
   Species                 Molality    Activity  Molality  Activity     Gamma

   H+                     2.600e-05   2.512e-05    -4.585    -4.600    -0.015
   OH-                    4.133e-10   3.985e-10    -9.384    -9.400    -0.016
   H2O                    5.551e+01   1.000e+00     1.744         0         0
C(-4)            0.000e+00
   CH4                    0.000e+00   0.000e+00  -145.418  -145.418         0
C(4)             1.096e-05
   CO2                    1.076e-05   1.076e-05    -4.968    -4.968         0
   HCO3-                  1.975e-07   1.906e-07    -6.704    -6.720    -0.015
   CaHCO3+                4.048e-10   3.907e-10    -9.393    -9.408    -0.015
   MgHCO3+                6.905e-11   6.660e-11   -10.161   -10.177    -0.016
   NaHCO3                 1.267e-11   1.267e-11   -10.897   -10.897         0
   CO3-2                  4.105e-13   3.559e-13   -12.387   -12.449    -0.062
   CaCO3                  9.601e-14   9.603e-14   -13.018   -13.018         0
   MgCO3                  1.014e-14   1.014e-14   -13.994   -13.994         0
   NaCO3-                 8.122e-16   7.833e-16   -15.090   -15.106    -0.016
Ca               1.916e-04
   Ca+2                   1.853e-04   1.606e-04    -3.732    -3.794    -0.062
   CaSO4                  6.296e-06   6.297e-06    -5.201    -5.201         0
   CaHSO4+                9.608e-10   9.267e-10    -9.017    -9.033    -0.016
   CaHCO3+                4.048e-10   3.907e-10    -9.393    -9.408    -0.015
   CaOH+                  1.100e-12   1.061e-12   -11.958   -11.974    -0.016
   CaCO3                  9.601e-14   9.603e-14   -13.018   -13.018         0
Cl               1.337e-04
   Cl-                    1.337e-04   1.289e-04    -3.874    -3.890    -0.016
H(0)             0.000e+00
   H2                     0.000e+00   0.000e+00   -44.360   -44.360         0
Mg               3.580e-05
   Mg+2                   3.442e-05   2.986e-05    -4.463    -4.525    -0.062
   MgSO4                  1.375e-06   1.375e-06    -5.862    -5.862         0
   MgHCO3+                6.905e-11   6.660e-11   -10.161   -10.177    -0.016
   MgOH+                  4.475e-12   4.316e-12   -11.349   -11.365    -0.016
   MgCO3                  1.014e-14   1.014e-14   -13.994   -13.994         0
Na               1.227e-04
   Na+                    1.225e-04   1.182e-04    -3.912    -3.927    -0.016
   NaSO4-                 1.207e-07   1.164e-07    -6.918    -6.934    -0.016
   NaHCO3                 1.267e-11   1.267e-11   -10.897   -10.897         0
   NaOH                   3.109e-14   3.109e-14   -13.507   -13.507         0
   NaCO3-                 8.122e-16   7.833e-16   -15.090   -15.106    -0.016
O(0)             4.374e-04
   O2                     2.187e-04   2.188e-04    -3.660    -3.660         0
S(-2)            0.000e+00
   H2S                    0.000e+00   0.000e+00  -137.155  -137.155         0
   HS-                    0.000e+00   0.000e+00  -139.481  -139.497    -0.016
   S-2                    0.000e+00   0.000e+00  -147.752  -147.815    -0.062
S(6)             2.351e-04
   SO4-2                  2.268e-04   1.965e-04    -3.644    -3.707    -0.062
   CaSO4                  6.296e-06   6.297e-06    -5.201    -5.201         0
   MgSO4                  1.375e-06   1.375e-06    -5.862    -5.862         0
   HSO4-                  4.975e-07   4.798e-07    -6.303    -6.319    -0.016
   NaSO4-                 1.207e-07   1.164e-07    -6.918    -6.934    -0.016
   CaHSO4+                9.608e-10   9.267e-10    -9.017    -9.033    -0.016

------------------------------Saturation indices-------------------------------

	Phase               SI log IAP  log KT

	Anhydrite        -3.14   -7.50   -4.36  CaSO4
	Aragonite        -7.91  -16.24   -8.34  CaCO3
	Calcite          -7.76  -16.24   -8.48  CaCO3
	CH4(g)         -142.56 -145.42   -2.86  CH4
	CO2(g)           -3.50   -4.97   -1.47  CO2
	Dolomite        -16.13  -33.22  -17.09  CaMg(CO3)2
	Gypsum           -2.92   -7.50   -4.58  CaSO4:2H2O
	H2(g)           -41.21  -44.36   -3.15  H2
	H2O(g)           -1.51       0    1.51  H2O
	H2S(g)         -136.16 -137.16   -1.00  H2S
	Halite           -9.40   -7.82    1.58  NaCl
	O2(g)            -0.70   -3.66   -2.96  O2
	Sulfur         -100.83  -95.95    4.88  S

------------------
End of simulation.
------------------

------------------------------------
Reading input data for simulation 2.
------------------------------------

	USE solution 1
	EQUILIBRIUM_PHASES 1
	        Dolomite        0.0     1.6
	        Calcite         0.0     0.1
	        CO2(g)          -1.5    100.
	SAVE solution 1
	END
-----------------------------------------
Beginning of batch-reaction calculations.
-----------------------------------------

Reaction step 1.

-------------------------------Phase assemblage--------------------------------

                                                      Moles in assemblage
Phase                  SI log IAP  log KT      Initial       Final       Delta

Calcite                 0   -8.48   -8.48    1.000e-01   9.966e-02  -3.441e-04
CO2(g)              -1.50   -2.97   -1.47    1.000e+02   1.000e+02  -4.066e-03
Dolomite                0  -17.09  -17.09    1.600e+00   1.599e+00  -1.349e-03

-----------------------------Solution composition------------------------------

	Elements           Molality       Moles

	C                 7.119e-03   7.119e-03
	Ca                1.885e-03   1.884e-03
	Cl                1.337e-04   1.337e-04
	Mg                1.385e-03   1.385e-03
	Na                1.227e-04   1.227e-04
	S                 2.351e-04   2.351e-04

----------------------------Description of solution----------------------------

                                       pH  =   7.047      Charge balance
                                       pe  =  13.558      Adjusted to redox equilibrium
                        Activity of water  =   1.000
                           Ionic strength  =   9.629e-03
                       Mass of water (kg)  =   9.999e-01
                 Total alkalinity (eq/kg)  =   6.057e-03
                       Total CO2 (mol/kg)  =   7.119e-03
                      Temperature (deg C)  =  25.000
                  Electrical balance (eq)  =   2.105e-15
 Percent error, 100*(Cat-|An|)/(Cat+|An|)  =      0
                               Iterations  =   9
                                  Total H  = 1.110125e+02
                                  Total O  = 5.552487e+01

----------------------------Distribution of species----------------------------

                                                   Log       Log         Log 
   Species                 Molality    Activity  Molality  Activity     Gamma

   OH-                    1.236e-07   1.115e-07    -6.908    -6.953    -0.045
   H+                     9.814e-08   8.977e-08    -7.008    -7.047    -0.039
   H2O                    5.551e+01   9.998e-01     1.744         0         0
C(-4)            0.000e+00
   CH4                    0.000e+00   0.000e+00  -143.421  -143.420     0.001
C(4)             7.119e-03
   HCO3-                  5.883e-03   5.333e-03    -2.230    -2.273    -0.043
   CO2                    1.074e-03   1.077e-03    -2.969    -2.968     0.001
   CaHCO3+                8.923e-05   8.090e-05    -4.049    -4.092    -0.043
   MgHCO3+                6.082e-05   5.496e-05    -4.216    -4.260    -0.044
   CaCO3                  5.553e-06   5.565e-06    -5.256    -5.255     0.001
   CO3-2                  4.124e-06   2.786e-06    -5.385    -5.555    -0.170
   MgCO3                  2.336e-06   2.341e-06    -5.631    -5.631     0.001
   NaHCO3                 3.310e-07   3.317e-07    -6.480    -6.479     0.001
   NaCO3-                 6.350e-09   5.738e-09    -8.197    -8.241    -0.044
Ca               1.885e-03
   Ca+2                   1.761e-03   1.189e-03    -2.754    -2.925    -0.171
   CaHCO3+                8.923e-05   8.090e-05    -4.049    -4.092    -0.043
   CaSO4                  2.881e-05   2.888e-05    -4.540    -4.539     0.001
   CaCO3                  5.553e-06   5.565e-06    -5.256    -5.255     0.001
   CaOH+                  2.432e-09   2.198e-09    -8.614    -8.658    -0.044
   CaHSO4+                1.681e-11   1.519e-11   -10.775   -10.819    -0.044
Cl               1.337e-04
   Cl-                    1.337e-04   1.206e-04    -3.874    -3.919    -0.045
H(0)             0.000e+00
   H2                     0.000e+00   0.000e+00   -44.361   -44.361     0.001
Mg               1.385e-03
   Mg+2                   1.296e-03   8.807e-04    -2.887    -3.055    -0.168
   MgHCO3+                6.082e-05   5.496e-05    -4.216    -4.260    -0.044
   MgSO4                  2.507e-05   2.513e-05    -4.601    -4.600     0.001
   MgCO3                  2.336e-06   2.341e-06    -5.631    -5.631     0.001
   MgOH+                  3.941e-08   3.561e-08    -7.404    -7.448    -0.044
Na               1.227e-04
   Na+                    1.223e-04   1.106e-04    -3.913    -3.956    -0.044
   NaHCO3                 3.310e-07   3.317e-07    -6.480    -6.479     0.001
   NaSO4-                 7.467e-08   6.747e-08    -7.127    -7.171    -0.044
   NaCO3-                 6.350e-09   5.738e-09    -8.197    -8.241    -0.044
   NaOH                   8.120e-12   8.138e-12   -11.090   -11.089     0.001
O(0)             4.375e-04
   O2                     2.187e-04   2.192e-04    -3.660    -3.659     0.001
S(-2)            0.000e+00
   HS-                    0.000e+00   0.000e+00  -142.108  -142.153    -0.045
   H2S                    0.000e+00   0.000e+00  -142.259  -142.258     0.001
   S-2                    0.000e+00   0.000e+00  -147.852  -148.024    -0.172
S(6)             2.351e-04
   SO4-2                  1.811e-04   1.217e-04    -3.742    -3.915    -0.173
   CaSO4                  2.881e-05   2.888e-05    -4.540    -4.539     0.001
   MgSO4                  2.507e-05   2.513e-05    -4.601    -4.600     0.001
   NaSO4-                 7.467e-08   6.747e-08    -7.127    -7.171    -0.044
   HSO4-                  1.176e-09   1.062e-09    -8.930    -8.974    -0.044
   CaHSO4+                1.681e-11   1.519e-11   -10.775   -10.819    -0.044

------------------------------Saturation indices-------------------------------

	Phase               SI log IAP  log KT

	Anhydrite        -2.48   -6.84   -4.36  CaSO4
	Aragonite        -0.14   -8.48   -8.34  CaCO3
	Calcite              0   -8.48   -8.48  CaCO3
	CH4(g)         -140.56 -143.42   -2.86  CH4
	CO2(g)           -1.50   -2.97   -1.47  CO2
	Dolomite             0  -17.09  -17.09  CaMg(CO3)2
	Gypsum           -2.26   -6.84   -4.58  CaSO4:2H2O
	H2(g)           -41.21  -44.36   -3.15  H2
	H2O(g)           -1.51       0    1.51  H2O
	H2S(g)         -141.26 -142.26   -1.00  H2S
	Halite           -9.46   -7.87    1.58  NaCl
	O2(g)            -0.70   -3.66   -2.96  O2
	Sulfur         -105.93 -101.05    4.88  S

------------------
End of simulation.
------------------

------------------------------------
Reading input data for simulation 3.
------------------------------------

	SOLUTION 2 Brine
	        pH      5.713
	        pe      4.0     O2(g)   -0.7
	        temp    25.
	        units   mol/kgw
	        Ca      .4655
	        Mg      .1609
	        Na      5.402
	        Cl      6.642           charge
	        C       .00396
	        S       .004725
	        As      .01 umol/kgw
	END
-------------------------------------------
Beginning of initial solution calculations.
-------------------------------------------

Initial solution 2.	Brine

-----------------------------Solution composition------------------------------

	Elements           Molality       Moles

	As                1.000e-08   1.000e-08
	C                 3.960e-03   3.960e-03
	Ca                4.655e-01   4.655e-01
	Cl                6.642e+00   6.642e+00  Charge balance
	Mg                1.609e-01   1.609e-01
	Na                5.402e+00   5.402e+00
	S                 4.725e-03   4.725e-03

----------------------------Description of solution----------------------------

                                       pH  =   5.713    
                                       pe  =  14.945      Equilibrium with O2(g)
                        Activity of water  =   0.785
                           Ionic strength  =   7.266e+00
                       Mass of water (kg)  =   1.000e+00
                 Total alkalinity (eq/kg)  =   3.758e-03
                       Total CO2 (mol/kg)  =   3.960e-03
                      Temperature (deg C)  =  25.000
                  Electrical balance (eq)  =  -1.096e-11
 Percent error, 100*(Cat-|An|)/(Cat+|An|)  =      0
                               Iterations  =  10
                                  Total H  = 1.110162e+02
                                  Total O  = 5.553688e+01

----------------------------Distribution of species----------------------------

                                                   Log       Log         Log 
   Species                 Molality    Activity  Molality  Activity     Gamma

   H+                     2.755e-06   1.936e-06    -5.560    -5.713    -0.153
   OH-                    8.773e-09   4.056e-09    -8.057    -8.392    -0.335
   H2O                    5.551e+01   7.846e-01     1.744    -0.105         0
As               1.000e-08
   H2AsO4-                9.993e-09   5.476e-08    -8.000    -7.262     0.739
   H3AsO4                 3.458e-12   1.843e-11   -11.461   -10.735     0.727
   HAsO4-2                3.440e-12   3.100e-09   -11.463    -8.509     2.955
   AsO4-3                 1.137e-21   5.063e-15   -20.944   -14.296     6.649
C(-4)            0.000e+00
   CH4                    0.000e+00   0.000e+00  -144.357  -143.631     0.727
C(4)             3.960e-03
   CaHCO3+                3.015e-03   1.745e-03    -2.521    -2.758    -0.238
   HCO3-                  3.336e-04   1.931e-04    -3.477    -3.714    -0.238
   MgHCO3+                2.161e-04   1.184e-03    -3.665    -2.927     0.739
   CO2                    2.010e-04   1.071e-03    -3.697    -2.970     0.727
   NaHCO3                 1.924e-04   1.025e-03    -3.716    -2.989     0.727
   CaCO3                  1.044e-06   5.564e-06    -5.981    -5.255     0.727
   MgCO3                  4.389e-07   2.339e-06    -6.358    -5.631     0.727
   NaCO3-                 1.500e-07   8.221e-07    -6.824    -6.085     0.739
   CO3-2                  4.170e-08   4.676e-09    -7.380    -8.330    -0.950
Ca               4.655e-01
   Ca+2                   4.609e-01   7.084e-01    -0.336    -0.150     0.187
   CaHCO3+                3.015e-03   1.745e-03    -2.521    -2.758    -0.238
   CaSO4                  1.600e-03   8.528e-03    -2.796    -2.069     0.727
   CaCO3                  1.044e-06   5.564e-06    -5.981    -5.255     0.727
   CaHSO4+                1.766e-08   9.674e-08    -7.753    -7.014     0.739
   CaOH+                  8.693e-09   4.763e-08    -8.061    -7.322     0.739
Cl               6.642e+00
   Cl-                    6.642e+00   3.946e+00     0.822     0.596    -0.226
H(0)             0.000e+00
   H2                     0.000e+00   0.000e+00   -45.192   -44.465     0.727
Mg               1.609e-01
   Mg+2                   1.593e-01   5.242e-01    -0.798    -0.280     0.517
   MgSO4                  1.391e-03   7.415e-03    -2.857    -2.130     0.727
   MgHCO3+                2.161e-04   1.184e-03    -3.665    -2.927     0.739
   MgCO3                  4.389e-07   2.339e-06    -6.358    -5.631     0.727
   MgOH+                  1.407e-07   7.712e-07    -6.852    -6.113     0.739
Na               5.402e+00
   Na+                    5.401e+00   9.442e+00     0.732     0.975     0.243
   NaSO4-                 5.211e-04   2.855e-03    -3.283    -2.544     0.739
   NaHCO3                 1.924e-04   1.025e-03    -3.716    -2.989     0.727
   NaCO3-                 1.500e-07   8.221e-07    -6.824    -6.085     0.739
   NaOH                   4.743e-09   2.528e-08    -8.324    -7.597     0.727
O(0)             8.211e-05
   O2                     4.106e-05   2.188e-04    -4.387    -3.660     0.727
S(-2)            0.000e+00
   H2S                    0.000e+00   0.000e+00  -140.620  -139.894     0.727
   HS-                    0.000e+00   0.000e+00  -140.787  -141.122    -0.335
   S-2                    0.000e+00   0.000e+00  -147.315  -148.327    -1.012
S(6)             4.725e-03
   CaSO4                  1.600e-03   8.528e-03    -2.796    -2.069     0.727
   MgSO4                  1.391e-03   7.415e-03    -2.857    -2.130     0.727
   SO4-2                  1.212e-03   6.034e-05    -2.916    -4.219    -1.303
   NaSO4-                 5.211e-04   2.855e-03    -3.283    -2.544     0.739
   CaHSO4+                1.766e-08   9.674e-08    -7.753    -7.014     0.739
   HSO4-                  2.073e-09   1.136e-08    -8.683    -7.945     0.739

------------------------------Saturation indices-------------------------------

	Phase               SI log IAP  log KT

	Anhydrite        -0.01   -4.37   -4.36  CaSO4
	Aragonite        -0.14   -8.48   -8.34  CaCO3
	Calcite              0   -8.48   -8.48  CaCO3
	CH4(g)         -140.77 -143.63   -2.86  CH4
	CO2(g)           -1.50   -2.97   -1.47  CO2
	Dolomite             0  -17.09  -17.09  CaMg(CO3)2
	Gypsum               0   -4.58   -4.58  CaSO4:2H2O
	H2(g)           -41.32  -44.47   -3.15  H2
	H2O(g)           -1.62   -0.11    1.51  H2O
	H2S(g)         -138.90 -139.89   -1.00  H2S
	Halite           -0.01    1.57    1.58  NaCl
	O2(g)            -0.70   -3.66   -2.96  O2
	Sulfur         -103.46  -98.58    4.88  S

------------------
End of simulation.
------------------

------------------------------------
Reading input data for simulation 4.
------------------------------------

	USE solution 2
	EQUILIBRIUM_PHASES 2
	        Dolomite        0.0     1.6
	        Calcite         0.0     0.1
	SAVE solution 2
	END
-----------------------------------------
Beginning of batch-reaction calculations.
-----------------------------------------

Reaction step 1.

-------------------------------Phase assemblage--------------------------------

                                                      Moles in assemblage
Phase                  SI log IAP  log KT      Initial       Final       Delta

Calcite                 0   -8.48   -8.48    1.000e-01   1.002e-01   2.185e-04
Dolomite                0  -17.09  -17.09    1.600e+00   1.600e+00  -1.093e-04

-----------------------------Solution composition------------------------------

	Elements           Molality       Moles

	As                1.000e-08   1.000e-08
	C                 3.960e-03   3.960e-03
	Ca                4.654e-01   4.654e-01
	Cl                6.642e+00   6.642e+00
	Mg                1.610e-01   1.610e-01
	Na                5.402e+00   5.402e+00
	S                 4.725e-03   4.725e-03

----------------------------Description of solution----------------------------

                                       pH  =   5.713      Charge balance
                                       pe  =  14.945      Adjusted to redox equilibrium
                        Activity of water  =   0.785
                           Ionic strength  =   7.266e+00
                       Mass of water (kg)  =   1.000e+00
                 Total alkalinity (eq/kg)  =   3.758e-03
                       Total CO2 (mol/kg)  =   3.960e-03
                      Temperature (deg C)  =  25.000
                  Electrical balance (eq)  =  -1.095e-11
 Percent error, 100*(Cat-|An|)/(Cat+|An|)  =      0
                               Iterations  =   2
                                  Total H  = 1.110162e+02
                                  Total O  = 5.553688e+01

----------------------------Distribution of species----------------------------

                                                   Log       Log         Log 
   Species                 Molality    Activity  Molality  Activity     Gamma

   H+                     2.754e-06   1.936e-06    -5.560    -5.713    -0.153
   OH-                    8.776e-09   4.057e-09    -8.057    -8.392    -0.335
   H2O                    5.551e+01   7.846e-01     1.744    -0.105         0
As               1.000e-08
   H2AsO4-                9.993e-09   5.476e-08    -8.000    -7.262     0.739
   H3AsO4                 3.457e-12   1.842e-11   -11.461   -10.735     0.727
   HAsO4-2                3.441e-12   3.101e-09   -11.463    -8.508     2.955
   AsO4-3                 1.138e-21   5.066e-15   -20.944   -14.295     6.649
C(-4)            0.000e+00
   CH4                    0.000e+00   0.000e+00  -144.357  -143.631     0.727
C(4)             3.960e-03
   CaHCO3+                3.015e-03   1.745e-03    -2.521    -2.758    -0.238
   HCO3-                  3.337e-04   1.931e-04    -3.477    -3.714    -0.238
   MgHCO3+                2.163e-04   1.185e-03    -3.665    -2.926     0.739
   CO2                    2.010e-04   1.071e-03    -3.697    -2.970     0.727
   NaHCO3                 1.924e-04   1.025e-03    -3.716    -2.989     0.727
   CaCO3                  1.044e-06   5.565e-06    -5.981    -5.255     0.727
   MgCO3                  4.394e-07   2.341e-06    -6.357    -5.631     0.727
   NaCO3-                 1.501e-07   8.224e-07    -6.824    -6.085     0.739
   CO3-2                  4.171e-08   4.678e-09    -7.380    -8.330    -0.950
Ca               4.654e-01
   Ca+2                   4.608e-01   7.082e-01    -0.337    -0.150     0.187
   CaHCO3+                3.015e-03   1.745e-03    -2.521    -2.758    -0.238
   CaSO4                  1.600e-03   8.525e-03    -2.796    -2.069     0.727
   CaCO3                  1.044e-06   5.565e-06    -5.981    -5.255     0.727
   CaHSO4+                1.764e-08   9.668e-08    -7.753    -7.015     0.739
   CaOH+                  8.693e-09   4.763e-08    -8.061    -7.322     0.739
Cl               6.642e+00
   Cl-                    6.642e+00   3.946e+00     0.822     0.596    -0.226
H(0)             0.000e+00
   H2                     0.000e+00   0.000e+00   -45.192   -44.465     0.727
Mg               1.610e-01
   Mg+2                   1.594e-01   5.246e-01    -0.798    -0.280     0.517
   MgSO4                  1.392e-03   7.419e-03    -2.856    -2.130     0.727
   MgHCO3+                2.163e-04   1.185e-03    -3.665    -2.926     0.739
   MgCO3                  4.394e-07   2.341e-06    -6.357    -5.631     0.727
   MgOH+                  1.409e-07   7.719e-07    -6.851    -6.112     0.739
Na               5.402e+00
   Na+                    5.401e+00   9.442e+00     0.732     0.975     0.243
   NaSO4-                 5.210e-04   2.855e-03    -3.283    -2.544     0.739
   NaHCO3                 1.924e-04   1.025e-03    -3.716    -2.989     0.727
   NaCO3-                 1.501e-07   8.224e-07    -6.824    -6.085     0.739
   NaOH                   4.744e-09   2.528e-08    -8.324    -7.597     0.727
O(0)             8.211e-05
   O2                     4.106e-05   2.188e-04    -4.387    -3.660     0.727
S(-2)            0.000e+00
   H2S                    0.000e+00   0.000e+00  -140.621  -139.894     0.727
   HS-                    0.000e+00   0.000e+00  -140.788  -141.123    -0.335
   S-2                    0.000e+00   0.000e+00  -147.315  -148.327    -1.012
S(6)             4.725e-03
   CaSO4                  1.600e-03   8.525e-03    -2.796    -2.069     0.727
   MgSO4                  1.392e-03   7.419e-03    -2.856    -2.130     0.727
   SO4-2                  1.212e-03   6.033e-05    -2.917    -4.219    -1.303
   NaSO4-                 5.210e-04   2.855e-03    -3.283    -2.544     0.739
   CaHSO4+                1.764e-08   9.668e-08    -7.753    -7.015     0.739
   HSO4-                  2.072e-09   1.136e-08    -8.684    -7.945     0.739

------------------------------Saturation indices-------------------------------

	Phase               SI log IAP  log KT

	Anhydrite        -0.01   -4.37   -4.36  CaSO4
	Aragonite        -0.14   -8.48   -8.34  CaCO3
	Calcite              0   -8.48   -8.48  CaCO3
	CH4(g)         -140.77 -143.63   -2.86  CH4
	CO2(g)           -1.50   -2.97   -1.47  CO2
	Dolomite             0  -17.09  -17.09  CaMg(CO3)2
	Gypsum               0   -4.58   -4.58  CaSO4:2H2O
	H2(g)           -41.32  -44.47   -3.15  H2
	H2O(g)           -1.62   -0.11    1.51  H2O
	H2S(g)         -138.90 -139.89   -1.00  H2S
	Halite           -0.01    1.57    1.58  NaCl
	O2(g)            -0.70   -3.66   -2.96  O2
	Sulfur         -103.46  -98.58    4.88  S

------------------
End of simulation.
------------------

------------------------------------
Reading input data for simulation 5.
------------------------------------

	EXCHANGE 2
	        equilibrate with solution 2
	        X       0.5
	SURFACE 2
	        equilibrate solution 2
	        SurfOH          0.14     600.    30.
	END
-------------------------------------------------------
Beginning of initial exchange-composition calculations.
-------------------------------------------------------

Exchange 2.	

X                5.000e-01 mol

	                               Equiv-    Equivalent      Log 
	Species             Moles      alents      Fraction     Gamma

	NaX               4.507e-01   4.507e-01   9.014e-01     0.243
	CaX2              2.024e-02   4.048e-02   8.096e-02     0.187
	MgX2              4.418e-03   8.836e-03   1.767e-02     0.517

------------------------------------------------------
Beginning of initial surface-composition calculations.
------------------------------------------------------

Surface 2.	

Surf          
	  8.470e-02  Surface charge, eq
	  4.541e-01  sigma, C/m**2
	  5.950e-02  psi, V
	 -2.316e+00  -F*psi/RT
	  9.866e-02  exp(-F*psi/RT)
	  6.000e+02  specific area, m**2/g
	  1.800e+04  m**2 for   3.000e+01 g


Surf          
	  1.400e-01  moles
	                                   Mole                     Log
	Species               Moles    Fraction    Molality    Molality

	SurfOH2+          1.039e-01       0.742   1.039e-01      -0.984
	SurfOH            2.789e-02       0.199   2.789e-02      -1.555
	SurfOHAsO4-3      5.593e-03       0.040   5.593e-03      -2.252
	SurfHAsO4-        2.213e-03       0.016   2.213e-03      -2.655
	SurfH2AsO4        2.668e-04       0.002   2.668e-04      -3.574
	SurfO-            1.715e-04       0.001   1.715e-04      -3.766

------------------
End of simulation.
------------------

------------------------------------
Reading input data for simulation 6.
------------------------------------

	SELECTED_OUTPUT
	        file print_check_transient.dummy.sel
	        reset false
	        ph
	USER_PUNCH
	heading        Ca      Mg      Na      Cl      C(4)    SO4     As
	10 PUNCH TOT("Ca")*1e3*40.08
	20 PUNCH TOT("Mg")*1e3*24.312
	30 PUNCH TOT("Na")*1e3*23.
	40 PUNCH TOT("Cl")*1e3*35.45
	50 PUNCH TOT("C(4)")*1e3*61.   # as HCO3-
	60 PUNCH TOT("S(6)")*1e3*96.   # as SO4
	70 PUNCH TOT("As")*1e6*74.296  # ug/L
	END
------------------
End of simulation.
------------------

------------------------------------
Reading input data for simulation 7.
------------------------------------

List of Components:
	1	H
	2	O
	3	As
	4	C
	5	Ca
	6	Cl
	7	Mg
	8	Na
	9	S
	10	Charge
List of master species:
	1	As
	2	C(-4)
	3	C(4)
	4	Ca
	5	Cl
	6	Mg
	7	Na
	8	S(-2)
	9	S(6)
Time 16000. Cell 1: x=              0	y=              0	z=              0
Using solution 1.
Using exchange 1
Using surface 1.
Using pure phase assemblage 1.

-------------------------------Phase assemblage--------------------------------

                                                      Moles in assemblage
Phase                  SI log IAP  log KT      Initial       Final       Delta

Calcite                 0   -8.48   -8.48    1.020e-01   1.025e-01   5.410e-04
Dolomite                0  -17.09  -17.09    1.599e+00   1.599e+00  -1.988e-04

------------------------------Surface composition------------------------------

Surf          
	  8.559e-02  Surface charge, eq
	  4.588e-01  sigma, C/m**2
	  6.189e-02  psi, V
	 -2.409e+00  -F*psi/RT
	  8.992e-02  exp(-F*psi/RT)
	  6.000e+02  specific area, m**2/g
	  1.800e+04  m**2 for   3.000e+01 g


Surf          
	  1.400e-01  moles
	                                   Mole                     Log
	Species               Moles    Fraction    Molality    Molality

	SurfOH2+          1.046e-01       0.747   1.046e-01      -0.981
	SurfOH            2.719e-02       0.194   2.719e-02      -1.566
	SurfOHAsO4-3      5.516e-03       0.039   5.516e-03      -2.258
	SurfHAsO4-        2.274e-03       0.016   2.274e-03      -2.643
	SurfH2AsO4        2.830e-04       0.002   2.830e-04      -3.548
	SurfO-            1.620e-04       0.001   1.620e-04      -3.791

-----------------------------Exchange composition------------------------------

X                5.000e-01 mol

	                               Equiv-    Equivalent      Log 
	Species             Moles      alents      Fraction     Gamma

	NaX               4.478e-01   4.478e-01   8.956e-01     0.198
	CaX2              2.122e-02   4.244e-02   8.488e-02     0.091
	MgX2              4.889e-03   9.777e-03   1.955e-02     0.398

-----------------------------Solution composition------------------------------

	Elements           Molality       Moles

	As                1.216e-08   1.216e-08
	C                 4.934e-03   4.934e-03
	Ca                4.153e-01   4.153e-01
	Cl                6.067e+00   6.067e+00
	Mg                1.514e-01   1.514e-01
	Na                4.948e+00   4.948e+00
	S                 4.337e-03   4.337e-03

----------------------------Description of solution----------------------------

                                       pH  =   5.659      Charge balance
                                       pe  =  15.012      Adjusted to redox equilibrium
                        Activity of water  =   0.803
                           Ionic strength  =   6.632e+00
                       Mass of water (kg)  =   1.000e+00
                 Total alkalinity (eq/kg)  =   4.524e-03
                       Total CO2 (mol/kg)  =   4.934e-03
                      Temperature (deg C)  =  25.000
                  Electrical balance (eq)  =   8.337e-04
 Percent error, 100*(Cat-|An|)/(Cat+|An|)  =   0.01
                               Iterations  =   4
                                  Total H  = 1.110172e+02
                                  Total O  = 5.553817e+01

----------------------------Distribution of species----------------------------

                                                   Log       Log         Log 
   Species                 Molality    Activity  Molality  Activity     Gamma

   H+                     3.115e-06   2.194e-06    -5.506    -5.659    -0.152
   OH-                    7.859e-09   3.665e-09    -8.105    -8.436    -0.331
   H2O                    5.551e+01   8.031e-01     1.744    -0.095         0
As               1.216e-08
   H2AsO4-                1.215e-08   5.383e-08    -7.915    -7.269     0.647
   HAsO4-2                6.979e-12   2.691e-09   -11.156    -8.570     2.586
   H3AsO4                 4.456e-12   2.052e-11   -11.351   -10.688     0.663
   AsO4-3                 5.890e-21   3.879e-15   -20.230   -14.411     5.819
C(-4)            0.000e+00
   CH4                    0.000e+00   0.000e+00  -144.178  -143.515     0.663
C(4)             4.934e-03
   CaHCO3+                3.401e-03   1.977e-03    -2.468    -2.704    -0.236
   HCO3-                  5.271e-04   3.063e-04    -3.278    -3.514    -0.236
   CO2                    4.085e-04   1.881e-03    -3.389    -2.726     0.663
   MgHCO3+                3.031e-04   1.343e-03    -3.518    -2.872     0.647
   NaHCO3                 2.920e-04   1.345e-03    -3.535    -2.871     0.663
   CaCO3                  1.208e-06   5.565e-06    -5.918    -5.255     0.663
   MgCO3                  5.085e-07   2.341e-06    -6.294    -5.631     0.663
   NaCO3-                 2.148e-07   9.520e-07    -6.668    -6.021     0.647
   CO3-2                  5.739e-08   6.549e-09    -7.241    -8.184    -0.943
Ca               4.153e-01
   Ca+2                   4.105e-01   5.058e-01    -0.387    -0.296     0.091
   CaHCO3+                3.401e-03   1.977e-03    -2.468    -2.704    -0.236
   CaSO4                  1.390e-03   6.399e-03    -2.857    -2.194     0.663
   CaCO3                  1.208e-06   5.565e-06    -5.918    -5.255     0.663
   CaHSO4+                1.856e-08   8.223e-08    -7.731    -7.085     0.647
   CaOH+                  6.936e-09   3.073e-08    -8.159    -7.512     0.647
Cl               6.067e+00
   Cl-                    6.067e+00   3.558e+00     0.783     0.551    -0.232
H(0)             0.000e+00
   H2                     0.000e+00   0.000e+00   -45.156   -44.493     0.663
Mg               1.514e-01
   Mg+2                   1.499e-01   3.747e-01    -0.824    -0.426     0.398
   MgSO4                  1.209e-03   5.569e-03    -2.917    -2.254     0.663
   MgHCO3+                3.031e-04   1.343e-03    -3.518    -2.872     0.647
   MgCO3                  5.085e-07   2.341e-06    -6.294    -5.631     0.663
   MgOH+                  1.124e-07   4.980e-07    -6.949    -6.303     0.647
Na               4.948e+00
   Na+                    4.947e+00   7.806e+00     0.694     0.892     0.198
   NaSO4-                 5.598e-04   2.481e-03    -3.252    -2.605     0.647
   NaHCO3                 2.920e-04   1.345e-03    -3.535    -2.871     0.663
   NaCO3-                 2.148e-07   9.520e-07    -6.668    -6.021     0.647
   NaOH                   4.100e-09   1.888e-08    -8.387    -7.724     0.663
O(0)             1.129e-04
   O2                     5.643e-05   2.599e-04    -4.249    -3.585     0.663
S(-2)            0.000e+00
   H2S                    0.000e+00   0.000e+00  -140.577  -139.913     0.663
   HS-                    0.000e+00   0.000e+00  -140.865  -141.196    -0.331
   S-2                    0.000e+00   0.000e+00  -147.452  -148.455    -1.004
S(6)             4.337e-03
   CaSO4                  1.390e-03   6.399e-03    -2.857    -2.194     0.663
   MgSO4                  1.209e-03   5.569e-03    -2.917    -2.254     0.663
   SO4-2                  1.178e-03   6.341e-05    -2.929    -4.198    -1.269
   NaSO4-                 5.598e-04   2.481e-03    -3.252    -2.605     0.647
   CaHSO4+                1.856e-08   8.223e-08    -7.731    -7.085     0.647
   HSO4-                  3.052e-09   1.352e-08    -8.515    -7.869     0.647

------------------------------Saturation indices-------------------------------

	Phase               SI log IAP  log KT

	Anhydrite        -0.13   -4.49   -4.36  CaSO4
	Aragonite        -0.14   -8.48   -8.34  CaCO3
	Calcite              0   -8.48   -8.48  CaCO3
	CH4(g)         -140.66 -143.52   -2.86  CH4
	CO2(g)           -1.26   -2.73   -1.47  CO2
	Dolomite             0  -17.09  -17.09  CaMg(CO3)2
	Gypsum           -0.10   -4.68   -4.58  CaSO4:2H2O
	H2(g)           -41.34  -44.49   -3.15  H2
	H2O(g)           -1.61   -0.10    1.51  H2O
	H2S(g)         -138.92 -139.91   -1.00  H2S
	Halite           -0.14    1.44    1.58  NaCl
	O2(g)            -0.63   -3.59   -2.96  O2
	Sulfur         -103.45  -98.57    4.88  S

Time 16000. Cell 3: x=          12000	y=              0	z=              0
Using solution 3.
Using exchange 3
Using surface 3.
Using pure phase assemblage 3.

-------------------------------Phase assemblage--------------------------------

                                                      Moles in assemblage
Phase                  SI log IAP  log KT      Initial       Final       Delta

Calcite                 0   -8.48   -8.48    1.236e-01   1.248e-01   1.178e-03
Dolomite                0  -17.09  -17.09    1.586e+00   1.585e+00  -1.357e-03

------------------------------Surface composition------------------------------

Surf          
	  7.567e-02  Surface charge, eq
	  4.056e-01  sigma, C/m**2
	  7.494e-02  psi, V
	 -2.917e+00  -F*psi/RT
	  5.409e-02  exp(-F*psi/RT)
	  6.000e+02  specific area, m**2/g
	  1.800e+04  m**2 for   3.000e+01 g


Surf          
	  1.400e-01  moles
	                                   Mole                     Log
	Species               Moles    Fraction    Molality    Molality

	SurfOH2+          9.721e-02       0.694   9.719e-02      -1.012
	SurfOH            3.444e-02       0.246   3.443e-02      -1.463
	SurfOHAsO4-3      6.654e-03       0.048   6.653e-03      -2.177
	SurfHAsO4-        1.300e-03       0.009   1.300e-03      -2.886
	SurfO-            2.795e-04       0.002   2.795e-04      -3.554
	SurfH2AsO4        1.187e-04       0.001   1.187e-04      -3.926

-----------------------------Exchange composition------------------------------

X                5.000e-01 mol

	                               Equiv-    Equivalent      Log 
	Species             Moles      alents      Fraction     Gamma

	NaX               4.129e-01   4.129e-01   8.257e-01    -0.051
	CaX2              3.299e-02   6.598e-02   1.320e-01    -0.437
	MgX2              1.058e-02   2.116e-02   4.231e-02    -0.274

-----------------------------Solution composition------------------------------

	Elements           Molality       Moles

	As                1.282e-08   1.282e-08
	C                 2.448e-02   2.449e-02
	Ca                1.548e-01   1.548e-01
	Cl                2.636e+00   2.637e+00
	Mg                7.803e-02   7.804e-02
	Na                2.217e+00   2.217e+00
	S                 2.017e-03   2.017e-03

----------------------------Description of solution----------------------------

                                       pH  =   5.572      Charge balance
                                       pe  =  15.082      Adjusted to redox equilibrium
                        Activity of water  =   0.913
                           Ionic strength  =   2.886e+00
                       Mass of water (kg)  =   1.000e+00
                 Total alkalinity (eq/kg)  =   1.282e-02
                       Total CO2 (mol/kg)  =   2.448e-02
                      Temperature (deg C)  =  25.000
                  Electrical balance (eq)  =   2.956e-02
 Percent error, 100*(Cat-|An|)/(Cat+|An|)  =   0.56
                               Iterations  =   4
                                  Total H  = 1.110433e+02
                                  Total O  = 5.558542e+01

----------------------------Distribution of species----------------------------

                                                   Log       Log         Log 
   Species                 Molality    Activity  Molality  Activity     Gamma

   H+                     3.726e-06   2.676e-06    -5.429    -5.572    -0.144
   OH-                    6.708e-09   3.416e-09    -8.173    -8.467    -0.293
   H2O                    5.551e+01   9.132e-01     1.744    -0.039         0
As               1.282e-08
   H2AsO4-                1.259e-08   1.661e-08    -7.900    -7.780     0.120
   HAsO4-2                2.246e-10   6.806e-10    -9.649    -9.167     0.482
   H3AsO4                 3.976e-12   7.727e-12   -11.401   -11.112     0.289
   AsO4-3                 6.635e-17   8.042e-16   -16.178   -15.095     1.084
C(-4)            0.000e+00
   CH4                    0.000e+00   0.000e+00  -142.701  -142.412     0.289
C(4)             2.448e-02
   CO2                    1.166e-02   2.267e-02    -1.933    -1.645     0.289
   HCO3-                  5.652e-03   3.440e-03    -2.248    -2.463    -0.216
   CaHCO3+                3.963e-03   2.412e-03    -2.402    -2.618    -0.216
   NaHCO3                 1.958e-03   3.806e-03    -2.708    -2.420     0.289
   MgHCO3+                1.242e-03   1.639e-03    -2.906    -2.786     0.120
   CaCO3                  2.863e-06   5.565e-06    -5.543    -5.255     0.289
   NaCO3-                 1.674e-06   2.208e-06    -5.776    -5.656     0.120
   MgCO3                  1.205e-06   2.341e-06    -5.919    -5.631     0.289
   CO3-2                  4.394e-07   6.027e-08    -6.357    -7.220    -0.863
Ca               1.548e-01
   Ca+2                   1.504e-01   5.496e-02    -0.823    -1.260    -0.437
   CaHCO3+                3.963e-03   2.412e-03    -2.402    -2.618    -0.216
   CaSO4                  3.963e-04   7.703e-04    -3.402    -3.113     0.289
   CaCO3                  2.863e-06   5.565e-06    -5.543    -5.255     0.289
   CaHSO4+                9.154e-09   1.208e-08    -8.038    -7.918     0.120
   CaOH+                  2.359e-09   3.112e-09    -8.627    -8.507     0.120
Cl               2.636e+00
   Cl-                    2.636e+00   1.483e+00     0.421     0.171    -0.250
H(0)             0.000e+00
   H2                     0.000e+00   0.000e+00   -44.748   -44.459     0.289
Mg               7.803e-02
   Mg+2                   7.644e-02   4.071e-02    -1.117    -1.390    -0.274
   MgHCO3+                1.242e-03   1.639e-03    -2.906    -2.786     0.120
   MgSO4                  3.449e-04   6.704e-04    -3.462    -3.174     0.289
   MgCO3                  1.205e-06   2.341e-06    -5.919    -5.631     0.289
   MgOH+                  3.822e-08   5.043e-08    -7.418    -7.297     0.120
Na               2.217e+00
   Na+                    2.214e+00   1.968e+00     0.345     0.294    -0.051
   NaHCO3                 1.958e-03   3.806e-03    -2.708    -2.420     0.289
   NaSO4-                 5.250e-04   6.927e-04    -3.280    -3.159     0.120
   NaCO3-                 1.674e-06   2.208e-06    -5.776    -5.656     0.120
   NaOH                   2.282e-09   4.436e-09    -8.642    -8.353     0.289
O(0)             2.964e-04
   O2                     1.482e-04   2.880e-04    -3.829    -3.541     0.289
S(-2)            0.000e+00
   H2S                    0.000e+00   0.000e+00  -140.074  -139.785     0.289
   HS-                    0.000e+00   0.000e+00  -140.862  -141.155    -0.293
   S-2                    0.000e+00   0.000e+00  -147.587  -148.500    -0.913
S(6)             2.017e-03
   SO4-2                  7.509e-04   7.025e-05    -3.124    -4.153    -1.029
   NaSO4-                 5.250e-04   6.927e-04    -3.280    -3.159     0.120
   CaSO4                  3.963e-04   7.703e-04    -3.402    -3.113     0.289
   MgSO4                  3.449e-04   6.704e-04    -3.462    -3.174     0.289
   HSO4-                  1.385e-08   1.828e-08    -7.858    -7.738     0.120
   CaHSO4+                9.154e-09   1.208e-08    -8.038    -7.918     0.120

------------------------------Saturation indices-------------------------------

	Phase               SI log IAP  log KT

	Anhydrite        -1.05   -5.41   -4.36  CaSO4
	Aragonite        -0.14   -8.48   -8.34  CaCO3
	Calcite              0   -8.48   -8.48  CaCO3
	CH4(g)         -139.55 -142.41   -2.86  CH4
	CO2(g)           -0.18   -1.64   -1.47  CO2
	Dolomite             0  -17.09  -17.09  CaMg(CO3)2
	Gypsum           -0.91   -5.49   -4.58  CaSO4:2H2O
	H2(g)           -41.31  -44.46   -3.15  H2
	H2O(g)           -1.55   -0.04    1.51  H2O
	H2S(g)         -138.79 -139.79   -1.00  H2S
	Halite           -1.12    0.47    1.58  NaCl
	O2(g)            -0.58   -3.54   -2.96  O2
	Sulfur         -103.36  -98.48    4.88  S

Time 16000. Cell 5: x=          24000	y=              0	z=              0
Using solution 5.
Using exchange 5
Using surface 5.
Using pure phase assemblage 5.

-------------------------------Phase assemblage--------------------------------

                                                      Moles in assemblage
Phase                  SI log IAP  log KT      Initial       Final       Delta

Calcite                 0   -8.48   -8.48    1.391e-01   1.385e-01  -5.669e-04
Dolomite                0  -17.09  -17.09    1.562e+00   1.561e+00  -8.662e-04

------------------------------Surface composition------------------------------

Surf          
	  2.280e-02  Surface charge, eq
	  1.222e-01  sigma, C/m**2
	  6.681e-02  psi, V
	 -2.600e+00  -F*psi/RT
	  7.425e-02  exp(-F*psi/RT)
	  6.000e+02  specific area, m**2/g
	  1.800e+04  m**2 for   3.000e+01 g


Surf          
	  1.400e-01  moles
	                                   Mole                     Log
	Species               Moles    Fraction    Molality    Molality

	SurfOH            7.927e-02       0.566   7.926e-02      -1.101
	SurfOH2+          4.977e-02       0.355   4.976e-02      -1.303
	SurfOHAsO4-3      8.000e-03       0.057   7.999e-03      -2.097
	SurfO-            2.892e-03       0.021   2.892e-03      -2.539
	SurfHAsO4-        7.145e-05       0.001   7.144e-05      -4.146
	SurfH2AsO4        1.452e-06           0   1.451e-06      -5.838

-----------------------------Exchange composition------------------------------

X                5.000e-01 mol

	                               Equiv-    Equivalent      Log 
	Species             Moles      alents      Fraction     Gamma

	NaX               3.083e-01   3.083e-01   6.165e-01    -0.145
	CaX2              6.735e-02   1.347e-01   2.694e-01    -0.560
	MgX2              2.852e-02   5.703e-02   1.141e-01    -0.518

-----------------------------Solution composition------------------------------

	Elements           Molality       Moles

	As                1.329e-09   1.329e-09
	C                 2.359e-02   2.359e-02
	Ca                1.257e-02   1.257e-02
	Cl                3.296e-01   3.297e-01
	Mg                8.435e-03   8.436e-03
	Na                3.277e-01   3.278e-01
	S                 4.578e-04   4.578e-04

----------------------------Description of solution----------------------------

                                       pH  =   6.363      Charge balance
                                       pe  =  14.250      Adjusted to redox equilibrium
                        Activity of water  =   0.988
                           Ionic strength  =   3.757e-01
                       Mass of water (kg)  =   1.000e+00
                 Total alkalinity (eq/kg)  =   1.519e-02
                       Total CO2 (mol/kg)  =   2.359e-02
                      Temperature (deg C)  =  25.000
                  Electrical balance (eq)  =   2.401e-02
 Percent error, 100*(Cat-|An|)/(Cat+|An|)  =   3.38
                               Iterations  =   4
                                  Total H  = 1.110416e+02
                                  Total O  = 5.557783e+01

----------------------------Distribution of species----------------------------

                                                   Log       Log         Log 
   Species                 Molality    Activity  Molality  Activity     Gamma

   H+                     5.600e-07   4.337e-07    -6.252    -6.363    -0.111
   OH-                    3.478e-08   2.281e-08    -7.459    -7.642    -0.183
   H2O                    5.551e+01   9.881e-01     1.744    -0.005         0
As               1.329e-09
   H2AsO4-                8.064e-10   5.894e-10    -9.093    -9.230    -0.136
   HAsO4-2                5.222e-10   1.490e-10    -9.282    -9.827    -0.545
   H3AsO4                 4.074e-14   4.442e-14   -13.390   -13.352     0.038
   AsO4-3                 1.825e-14   1.087e-15   -13.739   -14.964    -1.225
C(-4)            0.000e+00
   CH4                    0.000e+00   0.000e+00  -142.574  -142.537     0.038
C(4)             2.359e-02
   HCO3-                  1.312e-02   9.298e-03    -1.882    -2.032    -0.150
   CO2                    8.415e-03   9.176e-03    -2.075    -2.037     0.038
   NaHCO3                 1.122e-03   1.223e-03    -2.950    -2.912     0.038
   CaHCO3+                5.516e-04   3.908e-04    -3.258    -3.408    -0.150
   MgHCO3+                3.632e-04   2.655e-04    -3.440    -3.576    -0.136
   NaCO3-                 5.993e-06   4.380e-06    -5.222    -5.359    -0.136
   CaCO3                  5.104e-06   5.565e-06    -5.292    -5.255     0.038
   CO3-2                  3.989e-06   1.006e-06    -5.399    -5.998    -0.598
   MgCO3                  2.147e-06   2.341e-06    -5.668    -5.631     0.038
Ca               1.257e-02
   Ca+2                   1.197e-02   3.294e-03    -1.922    -2.482    -0.560
   CaHCO3+                5.516e-04   3.908e-04    -3.258    -3.408    -0.150
   CaSO4                  3.903e-05   4.255e-05    -4.409    -4.371     0.038
   CaCO3                  5.104e-06   5.565e-06    -5.292    -5.255     0.038
   CaOH+                  1.704e-09   1.246e-09    -8.768    -8.905    -0.136
   CaHSO4+                1.479e-10   1.081e-10    -9.830    -9.966    -0.136
Cl               3.296e-01
   Cl-                    3.296e-01   2.190e-01    -0.482    -0.660    -0.178
H(0)             0.000e+00
   H2                     0.000e+00   0.000e+00   -44.413   -44.375     0.038
Mg               8.435e-03
   Mg+2                   8.035e-03   2.440e-03    -2.095    -2.613    -0.518
   MgHCO3+                3.632e-04   2.655e-04    -3.440    -3.576    -0.136
   MgSO4                  3.396e-05   3.703e-05    -4.469    -4.431     0.038
   MgCO3                  2.147e-06   2.341e-06    -5.668    -5.631     0.038
   MgOH+                  2.762e-08   2.019e-08    -7.559    -7.695    -0.136
Na               3.277e-01
   Na+                    3.265e-01   2.339e-01    -0.486    -0.631    -0.145
   NaHCO3                 1.122e-03   1.223e-03    -2.950    -2.912     0.038
   NaSO4-                 1.038e-04   7.590e-05    -3.984    -4.120    -0.136
   NaCO3-                 5.993e-06   4.380e-06    -5.222    -5.359    -0.136
   NaOH                   3.230e-09   3.522e-09    -8.491    -8.453     0.038
O(0)             4.198e-04
   O2                     2.099e-04   2.289e-04    -3.678    -3.640     0.038
S(-2)            0.000e+00
   H2S                    0.000e+00   0.000e+00  -141.240  -141.202     0.038
   HS-                    0.000e+00   0.000e+00  -141.598  -141.781    -0.183
   S-2                    0.000e+00   0.000e+00  -147.714  -148.336    -0.622
S(6)             4.578e-04
   SO4-2                  2.809e-04   6.474e-05    -3.551    -4.189    -0.637
   NaSO4-                 1.038e-04   7.590e-05    -3.984    -4.120    -0.136
   CaSO4                  3.903e-05   4.255e-05    -4.409    -4.371     0.038
   MgSO4                  3.396e-05   3.703e-05    -4.469    -4.431     0.038
   HSO4-                  3.734e-09   2.730e-09    -8.428    -8.564    -0.136
   CaHSO4+                1.479e-10   1.081e-10    -9.830    -9.966    -0.136

------------------------------Saturation indices-------------------------------

	Phase               SI log IAP  log KT

	Anhydrite        -2.31   -6.67   -4.36  CaSO4
	Aragonite        -0.14   -8.48   -8.34  CaCO3
	Calcite              0   -8.48   -8.48  CaCO3
	CH4(g)         -139.68 -142.54   -2.86  CH4
	CO2(g)           -0.57   -2.04   -1.47  CO2
	Dolomite             0  -17.09  -17.09  CaMg(CO3)2
	Gypsum           -2.10   -6.68   -4.58  CaSO4:2H2O
	H2(g)           -41.22  -44.37   -3.15  H2
	H2O(g)           -1.52   -0.01    1.51  H2O
	H2S(g)         -140.20 -141.20   -1.00  H2S
	Halite           -2.87   -1.29    1.58  NaCl
	O2(g)            -0.68   -3.64   -2.96  O2
	Sulfur         -104.86  -99.98    4.88  S

Time 16000. Cell 7: x=          36000	y=              0	z=              0
Using solution 7.
Using exchange 7
Using surface 7.
Using pure phase assemblage 7.

-------------------------------Phase assemblage--------------------------------

                                                      Moles in assemblage
Phase                  SI log IAP  log KT      Initial       Final       Delta

Calcite                 0   -8.48   -8.48    1.361e-01   1.357e-01  -4.206e-04
Dolomite                0  -17.09  -17.09    1.552e+00   1.551e+00  -3.097e-04

------------------------------Surface composition------------------------------

Surf          
	  2.913e-04  Surface charge, eq
	  1.562e-03  sigma, C/m**2
	  3.755e-03  psi, V
	 -1.462e-01  -F*psi/RT
	  8.640e-01  exp(-F*psi/RT)
	  6.000e+02  specific area, m**2/g
	  1.800e+04  m**2 for   3.000e+01 g


Surf          
	  1.400e-01  moles
	                                   Mole                     Log
	Species               Moles    Fraction    Molality    Molality

	SurfOH            9.432e-02       0.674   9.432e-02      -1.025
	SurfOH2+          3.104e-02       0.222   3.104e-02      -1.508
	SurfOHAsO4-3      8.053e-03       0.058   8.053e-03      -2.094
	SurfO-            6.567e-03       0.047   6.567e-03      -2.183
	SurfHAsO4-        1.954e-05           0   1.954e-05      -4.709
	SurfH2AsO4        2.081e-07           0   2.081e-07      -6.682

-----------------------------Exchange composition------------------------------

X                5.000e-01 mol

	                               Equiv-    Equivalent      Log 
	Species             Moles      alents      Fraction     Gamma

	NaX               2.434e-01   2.434e-01   4.868e-01    -0.072
	CaX2              8.792e-02   1.758e-01   3.517e-01    -0.280
	MgX2              4.038e-02   8.076e-02   1.615e-01    -0.272

-----------------------------Solution composition------------------------------

	Elements           Molality       Moles

	As                1.947e-08   1.947e-08
	C                 1.229e-02   1.229e-02
	Ca                2.955e-04   2.955e-04
	Cl                1.793e-02   1.793e-02
	Mg                2.130e-04   2.130e-04
	Na                3.383e-02   3.382e-02
	S                 2.471e-04   2.471e-04

----------------------------Description of solution----------------------------

                                       pH  =   7.709      Charge balance
                                       pe  =  12.897      Adjusted to redox equilibrium
                        Activity of water  =   0.999
                           Ionic strength  =   3.307e-02
                       Mass of water (kg)  =   1.000e+00
                 Total alkalinity (eq/kg)  =   1.193e-02
                       Total CO2 (mol/kg)  =   1.229e-02
                      Temperature (deg C)  =  25.000
                  Electrical balance (eq)  =   4.486e-03
 Percent error, 100*(Cat-|An|)/(Cat+|An|)  =   6.94
                               Iterations  =   4
                                  Total H  = 1.110229e+02
                                  Total O  = 5.554343e+01

----------------------------Distribution of species----------------------------

                                                   Log       Log         Log 
   Species                 Molality    Activity  Molality  Activity     Gamma

   OH-                    6.107e-07   5.120e-07    -6.214    -6.291    -0.077
   H+                     2.244e-08   1.953e-08    -7.649    -7.709    -0.060
   H2O                    5.551e+01   9.989e-01     1.744         0         0
As               1.947e-08
   HAsO4-2                1.758e-08   8.947e-09    -7.755    -8.048    -0.293
   H2AsO4-                1.887e-09   1.594e-09    -8.724    -8.798    -0.073
   AsO4-3                 6.618e-12   1.448e-12   -11.179   -11.839    -0.660
   H3AsO4                 5.368e-15   5.409e-15   -14.270   -14.267     0.003
C(-4)            0.000e+00
   CH4                    0.000e+00   0.000e+00  -143.821  -143.818     0.003
C(4)             1.229e-02
   HCO3-                  1.160e-02   9.876e-03    -1.935    -2.005    -0.070
   CO2                    4.309e-04   4.342e-04    -3.366    -3.362     0.003
   NaHCO3                 1.570e-04   1.582e-04    -3.804    -3.801     0.003
   CO3-2                  4.520e-05   2.371e-05    -4.345    -4.625    -0.280
   CaHCO3+                2.068e-05   1.760e-05    -4.684    -4.754    -0.070
   NaCO3-                 1.489e-05   1.257e-05    -4.827    -4.901    -0.073
   MgHCO3+                1.416e-05   1.196e-05    -4.849    -4.922    -0.073
   CaCO3                  5.523e-06   5.565e-06    -5.258    -5.255     0.003
   MgCO3                  2.324e-06   2.341e-06    -5.634    -5.631     0.003
Ca               2.955e-04
   Ca+2                   2.661e-04   1.397e-04    -3.575    -3.855    -0.280
   CaHCO3+                2.068e-05   1.760e-05    -4.684    -4.754    -0.070
   CaCO3                  5.523e-06   5.565e-06    -5.258    -5.255     0.003
   CaSO4                  3.171e-06   3.195e-06    -5.499    -5.495     0.003
   CaOH+                  1.404e-09   1.186e-09    -8.853    -8.926    -0.073
   CaHSO4+                4.329e-13   3.656e-13   -12.364   -12.437    -0.073
Cl               1.793e-02
   Cl-                    1.793e-02   1.505e-02    -1.746    -1.823    -0.076
H(0)             0.000e+00
   H2                     0.000e+00   0.000e+00   -44.365   -44.362     0.003
Mg               2.130e-04
   Mg+2                   1.937e-04   1.035e-04    -3.713    -3.985    -0.272
   MgHCO3+                1.416e-05   1.196e-05    -4.849    -4.922    -0.073
   MgSO4                  2.760e-06   2.781e-06    -5.559    -5.556     0.003
   MgCO3                  2.324e-06   2.341e-06    -5.634    -5.631     0.003
   MgOH+                  2.275e-08   1.921e-08    -7.643    -7.716    -0.073
Na               3.383e-02
   Na+                    3.363e-02   2.848e-02    -1.473    -1.546    -0.072
   NaHCO3                 1.570e-04   1.582e-04    -3.804    -3.801     0.003
   NaSO4-                 1.937e-05   1.636e-05    -4.713    -4.786    -0.073
   NaCO3-                 1.489e-05   1.257e-05    -4.827    -4.901    -0.073
   NaOH                   9.549e-09   9.622e-09    -8.020    -8.017     0.003
O(0)             4.365e-04
   O2                     2.183e-04   2.199e-04    -3.661    -3.658     0.003
S(-2)            0.000e+00
   HS-                    0.000e+00   0.000e+00  -142.768  -142.845    -0.077
   H2S                    0.000e+00   0.000e+00  -143.615  -143.612     0.003
   S-2                    0.000e+00   0.000e+00  -147.768  -148.053    -0.285
S(6)             2.471e-04
   SO4-2                  2.218e-04   1.146e-04    -3.654    -3.941    -0.287
   NaSO4-                 1.937e-05   1.636e-05    -4.713    -4.786    -0.073
   CaSO4                  3.171e-06   3.195e-06    -5.499    -5.495     0.003
   MgSO4                  2.760e-06   2.781e-06    -5.559    -5.556     0.003
   HSO4-                  2.577e-10   2.177e-10    -9.589    -9.662    -0.073
   CaHSO4+                4.329e-13   3.656e-13   -12.364   -12.437    -0.073

------------------------------Saturation indices-------------------------------

	Phase               SI log IAP  log KT

	Anhydrite        -3.43   -7.80   -4.36  CaSO4
	Aragonite        -0.14   -8.48   -8.34  CaCO3
	Calcite              0   -8.48   -8.48  CaCO3
	CH4(g)         -140.96 -143.82   -2.86  CH4
	CO2(g)           -1.89   -3.36   -1.47  CO2
	Dolomite             0  -17.09  -17.09  CaMg(CO3)2
	Gypsum           -3.22   -7.80   -4.58  CaSO4:2H2O
	H2(g)           -41.21  -44.36   -3.15  H2
	H2O(g)           -1.51       0    1.51  H2O
	H2S(g)         -142.62 -143.61   -1.00  H2S
	Halite           -4.95   -3.37    1.58  NaCl
	O2(g)            -0.70   -3.66   -2.96  O2
	Sulfur         -107.28 -102.40    4.88  S

Time 16000. Cell 9: x=          48000	y=              0	z=              0
Using solution 9.
Using exchange 9
Using surface 9.
Using pure phase assemblage 9.

-------------------------------Phase assemblage--------------------------------

                                                      Moles in assemblage
Phase                  SI log IAP  log KT      Initial       Final       Delta

Calcite                 0   -8.48   -8.48    1.343e-01   1.338e-01  -4.685e-04
Dolomite                0  -17.09  -17.09    1.550e+00   1.550e+00  -1.005e-04

------------------------------Surface composition------------------------------

Surf          
	 -1.984e-03  Surface charge, eq
	 -1.064e-02  sigma, C/m**2
	 -3.783e-02  psi, V
	  1.473e+00  -F*psi/RT
	  4.361e+00  exp(-F*psi/RT)
	  6.000e+02  specific area, m**2/g
	  1.800e+04  m**2 for   3.000e+01 g


Surf          
	  1.400e-01  moles
	                                   Mole                     Log
	Species               Moles    Fraction    Molality    Molality

	SurfOH            9.548e-02       0.682   9.548e-02      -1.020
	SurfOH2+          2.932e-02       0.209   2.932e-02      -1.533
	SurfOHAsO4-3      8.055e-03       0.058   8.056e-03      -2.094
	SurfO-            7.123e-03       0.051   7.123e-03      -2.147
	SurfHAsO4-        1.701e-05           0   1.701e-05      -4.769
	SurfH2AsO4        1.691e-07           0   1.691e-07      -6.772

-----------------------------Exchange composition------------------------------

X                5.000e-01 mol

	                               Equiv-    Equivalent      Log 
	Species             Moles      alents      Fraction     Gamma

	NaX               2.192e-01   2.192e-01   4.385e-01    -0.049
	CaX2              9.591e-02   1.918e-01   3.836e-01    -0.192
	MgX2              4.447e-02   8.894e-02   1.779e-01    -0.188

-----------------------------Solution composition------------------------------

	Elements           Molality       Moles

	As                3.401e-07   3.401e-07
	C                 9.268e-03   9.268e-03
	Ca                5.954e-05   5.954e-05
	Cl                1.963e-03   1.963e-03
	Mg                4.197e-05   4.197e-05
	Na                1.259e-02   1.259e-02
	S                 2.363e-04   2.363e-04

----------------------------Description of solution----------------------------

                                       pH  =   8.442      Charge balance
                                       pe  =  12.163      Adjusted to redox equilibrium
                        Activity of water  =   1.000
                           Ionic strength  =   1.268e-02
                       Mass of water (kg)  =   1.000e+00
                 Total alkalinity (eq/kg)  =   9.400e-03
                       Total CO2 (mol/kg)  =   9.268e-03
                      Temperature (deg C)  =  25.000
                  Electrical balance (eq)  =   9.548e-04
 Percent error, 100*(Cat-|An|)/(Cat+|An|)  =   3.91
                               Iterations  =   8
                                  Total H  = 1.110194e+02
                                  Total O  = 5.553433e+01

----------------------------Distribution of species----------------------------

                                                   Log       Log         Log 
   Species                 Molality    Activity  Molality  Activity     Gamma

   OH-                    3.114e-06   2.771e-06    -5.507    -5.557    -0.051
   H+                     3.988e-09   3.612e-09    -8.399    -8.442    -0.043
   H2O                    5.551e+01   9.996e-01     1.744         0         0
As               3.401e-07
   HAsO4-2                3.319e-07   2.101e-07    -6.479    -6.677    -0.198
   H2AsO4-                7.760e-09   6.922e-09    -8.110    -8.160    -0.050
   AsO4-3                 5.143e-10   1.840e-10    -9.289    -9.735    -0.446
   H3AsO4                 4.332e-15   4.345e-15   -14.363   -14.362     0.001
C(-4)            0.000e+00
   CH4                    0.000e+00   0.000e+00  -144.640  -144.638     0.001
C(4)             9.268e-03
   HCO3-                  8.953e-03   8.020e-03    -2.048    -2.096    -0.048
   CO3-2                  1.617e-04   1.041e-04    -3.791    -3.982    -0.191
   CO2                    6.496e-05   6.515e-05    -4.187    -4.186     0.001
   NaHCO3                 5.023e-05   5.037e-05    -4.299    -4.298     0.001
   NaCO3-                 2.428e-05   2.166e-05    -4.615    -4.664    -0.050
   CaCO3                  5.549e-06   5.565e-06    -5.256    -5.255     0.001
   CaHCO3+                3.634e-06   3.255e-06    -5.440    -5.487    -0.048
   MgHCO3+                2.479e-06   2.211e-06    -5.606    -5.655    -0.050
   MgCO3                  2.335e-06   2.341e-06    -5.632    -5.631     0.001
Ca               5.954e-05
   Ca+2                   4.944e-05   3.181e-05    -4.306    -4.497    -0.192
   CaCO3                  5.549e-06   5.565e-06    -5.256    -5.255     0.001
   CaHCO3+                3.634e-06   3.255e-06    -5.440    -5.487    -0.048
   CaSO4                  9.130e-07   9.156e-07    -6.040    -6.038     0.001
   CaOH+                  1.638e-09   1.461e-09    -8.786    -8.835    -0.050
   CaHSO4+                2.172e-14   1.937e-14   -13.663   -13.713    -0.050
Cl               1.963e-03
   Cl-                    1.963e-03   1.747e-03    -2.707    -2.758    -0.051
H(0)             0.000e+00
   H2                     0.000e+00   0.000e+00   -44.362   -44.361     0.001
Mg               4.197e-05
   Mg+2                   3.634e-05   2.356e-05    -4.440    -4.628    -0.188
   MgHCO3+                2.479e-06   2.211e-06    -5.606    -5.655    -0.050
   MgCO3                  2.335e-06   2.341e-06    -5.632    -5.631     0.001
   MgSO4                  7.945e-07   7.969e-07    -6.100    -6.099     0.001
   MgOH+                  2.654e-08   2.368e-08    -7.576    -7.626    -0.050
Na               1.259e-02
   Na+                    1.250e-02   1.117e-02    -1.903    -1.952    -0.049
   NaHCO3                 5.023e-05   5.037e-05    -4.299    -4.298     0.001
   NaCO3-                 2.428e-05   2.166e-05    -4.615    -4.664    -0.050
   NaSO4-                 9.053e-06   8.076e-06    -5.043    -5.093    -0.050
   NaOH                   2.037e-08   2.042e-08    -7.691    -7.690     0.001
O(0)             4.374e-04
   O2                     2.187e-04   2.193e-04    -3.660    -3.659     0.001
S(-2)            0.000e+00
   HS-                    0.000e+00   0.000e+00  -143.425  -143.475    -0.051
   H2S                    0.000e+00   0.000e+00  -144.977  -144.976     0.001
   S-2                    0.000e+00   0.000e+00  -147.757  -147.951    -0.194
S(6)             2.363e-04
   SO4-2                  2.255e-04   1.443e-04    -3.647    -3.841    -0.194
   NaSO4-                 9.053e-06   8.076e-06    -5.043    -5.093    -0.050
   CaSO4                  9.130e-07   9.156e-07    -6.040    -6.038     0.001
   MgSO4                  7.945e-07   7.969e-07    -6.100    -6.099     0.001
   HSO4-                  5.678e-11   5.066e-11   -10.246   -10.295    -0.050
   CaHSO4+                2.172e-14   1.937e-14   -13.663   -13.713    -0.050

------------------------------Saturation indices-------------------------------

	Phase               SI log IAP  log KT

	Anhydrite        -3.98   -8.34   -4.36  CaSO4
	Aragonite        -0.14   -8.48   -8.34  CaCO3
	Calcite              0   -8.48   -8.48  CaCO3
	CH4(g)         -141.78 -144.64   -2.86  CH4
	CO2(g)           -2.72   -4.19   -1.47  CO2
	Dolomite             0  -17.09  -17.09  CaMg(CO3)2
	Gypsum           -3.76   -8.34   -4.58  CaSO4:2H2O
	H2(g)           -41.21  -44.36   -3.15  H2
	H2O(g)           -1.51       0    1.51  H2O
	H2S(g)         -143.98 -144.98   -1.00  H2S
	Halite           -6.29   -4.71    1.58  NaCl
	O2(g)            -0.70   -3.66   -2.96  O2
	Sulfur         -108.65 -103.77    4.88  S

Time 16000. Cell 17: x=              0	y=           6000	z=              0
Using solution 17.
Using exchange 17
Using surface 17.
Using pure phase assemblage 17.

-------------------------------Phase assemblage--------------------------------

                                                      Moles in assemblage
Phase                  SI log IAP  log KT      Initial       Final       Delta

Calcite                 0   -8.48   -8.48    1.026e-01   1.032e-01   6.712e-04
Dolomite                0  -17.09  -17.09    1.599e+00   1.599e+00  -2.516e-04

------------------------------Surface composition------------------------------

Surf          
	  8.584e-02  Surface charge, eq
	  4.601e-01  sigma, C/m**2
	  6.225e-02  psi, V
	 -2.423e+00  -F*psi/RT
	  8.866e-02  exp(-F*psi/RT)
	  6.000e+02  specific area, m**2/g
	  1.800e+04  m**2 for   3.000e+01 g


Surf          
	  1.400e-01  moles
	                                   Mole                     Log
	Species               Moles    Fraction    Molality    Molality

	SurfOH2+          1.048e-01       0.748   1.048e-01      -0.980
	SurfOH            2.701e-02       0.193   2.701e-02      -1.568
	SurfOHAsO4-3      5.489e-03       0.039   5.489e-03      -2.260
	SurfHAsO4-        2.296e-03       0.016   2.296e-03      -2.639
	SurfH2AsO4        2.881e-04       0.002   2.881e-04      -3.540
	SurfO-            1.595e-04       0.001   1.595e-04      -3.797

-----------------------------Exchange composition------------------------------

X                5.000e-01 mol

	                               Equiv-    Equivalent      Log 
	Species             Moles      alents      Fraction     Gamma

	NaX               4.474e-01   4.474e-01   8.948e-01     0.193
	CaX2              2.135e-02   4.269e-02   8.539e-02     0.080
	MgX2              4.949e-03   9.898e-03   1.980e-02     0.384

-----------------------------Solution composition------------------------------

	Elements           Molality       Moles

	As                1.252e-08   1.252e-08
	C                 5.117e-03   5.117e-03
	Ca                4.096e-01   4.096e-01
	Cl                6.000e+00   6.000e+00
	Mg                1.502e-01   1.502e-01
	Na                4.895e+00   4.895e+00
	S                 4.291e-03   4.291e-03

----------------------------Description of solution----------------------------

                                       pH  =   5.649      Charge balance
                                       pe  =  15.023      Adjusted to redox equilibrium
                        Activity of water  =   0.805
                           Ionic strength  =   6.559e+00
                       Mass of water (kg)  =   1.000e+00
                 Total alkalinity (eq/kg)  =   4.665e-03
                       Total CO2 (mol/kg)  =   5.117e-03
                      Temperature (deg C)  =  25.000
                  Electrical balance (eq)  =   1.019e-03
 Percent error, 100*(Cat-|An|)/(Cat+|An|)  =   0.01
                               Iterations  =   4
                                  Total H  = 1.110174e+02
                                  Total O  = 5.553853e+01

----------------------------Distribution of species----------------------------

                                                   Log       Log         Log 
   Species                 Molality    Activity  Molality  Activity     Gamma

   H+                     3.186e-06   2.244e-06    -5.497    -5.649    -0.152
   OH-                    7.696e-09   3.593e-09    -8.114    -8.445    -0.331
   H2O                    5.551e+01   8.052e-01     1.744    -0.094         0
As               1.252e-08
   H2AsO4-                1.251e-08   5.408e-08    -7.903    -7.267     0.636
   HAsO4-2                7.563e-12   2.643e-09   -11.121    -8.578     2.543
   H3AsO4                 4.657e-12   2.109e-11   -11.332   -10.676     0.656
   AsO4-3                 7.056e-21   3.725e-15   -20.151   -14.429     5.723
C(-4)            0.000e+00
   CH4                    0.000e+00   0.000e+00  -144.146  -143.490     0.656
C(4)             5.117e-03
   CaHCO3+                3.477e-03   2.022e-03    -2.459    -2.694    -0.235
   HCO3-                  5.604e-04   3.259e-04    -3.251    -3.487    -0.235
   CO2                    4.509e-04   2.042e-03    -3.346    -2.690     0.656
   MgHCO3+                3.177e-04   1.374e-03    -3.498    -2.862     0.636
   NaHCO3                 3.089e-04   1.399e-03    -3.510    -2.854     0.656
   CaCO3                  1.229e-06   5.565e-06    -5.910    -5.255     0.656
   MgCO3                  5.171e-07   2.341e-06    -6.286    -5.631     0.656
   NaCO3-                 2.239e-07   9.681e-07    -6.650    -6.014     0.636
   CO3-2                  5.957e-08   6.812e-09    -7.225    -8.167    -0.942
Ca               4.096e-01
   Ca+2                   4.048e-01   4.863e-01    -0.393    -0.313     0.080
   CaHCO3+                3.477e-03   2.022e-03    -2.459    -2.694    -0.235
   CaSO4                  1.366e-03   6.184e-03    -2.865    -2.209     0.656
   CaCO3                  1.229e-06   5.565e-06    -5.910    -5.255     0.656
   CaHSO4+                1.880e-08   8.128e-08    -7.726    -7.090     0.636
   CaOH+                  6.699e-09   2.896e-08    -8.174    -7.538     0.636
Cl               6.000e+00
   Cl-                    6.000e+00   3.513e+00     0.778     0.546    -0.232
H(0)             0.000e+00
   H2                     0.000e+00   0.000e+00   -45.150   -44.495     0.656
Mg               1.502e-01
   Mg+2                   1.487e-01   3.602e-01    -0.828    -0.443     0.384
   MgSO4                  1.189e-03   5.382e-03    -2.925    -2.269     0.656
   MgHCO3+                3.177e-04   1.374e-03    -3.498    -2.862     0.636
   MgCO3                  5.171e-07   2.341e-06    -6.286    -5.631     0.656
   MgOH+                  1.086e-07   4.694e-07    -6.964    -6.328     0.636
Na               4.895e+00
   Na+                    4.894e+00   7.632e+00     0.690     0.883     0.193
   NaSO4-                 5.639e-04   2.438e-03    -3.249    -2.613     0.636
   NaHCO3                 3.089e-04   1.399e-03    -3.510    -2.854     0.656
   NaCO3-                 2.239e-07   9.681e-07    -6.650    -6.014     0.636
   NaOH                   3.997e-09   1.810e-08    -8.398    -7.742     0.656
O(0)             1.164e-04
   O2                     5.822e-05   2.636e-04    -4.235    -3.579     0.656
S(-2)            0.000e+00
   H2S                    0.000e+00   0.000e+00  -140.560  -139.904     0.656
   HS-                    0.000e+00   0.000e+00  -140.866  -141.197    -0.331
   S-2                    0.000e+00   0.000e+00  -147.463  -148.465    -1.003
S(6)             4.291e-03
   CaSO4                  1.366e-03   6.184e-03    -2.865    -2.209     0.656
   MgSO4                  1.189e-03   5.382e-03    -2.925    -2.269     0.656
   SO4-2                  1.173e-03   6.374e-05    -2.931    -4.196    -1.265
   NaSO4-                 5.639e-04   2.438e-03    -3.249    -2.613     0.636
   CaHSO4+                1.880e-08   8.128e-08    -7.726    -7.090     0.636
   HSO4-                  3.216e-09   1.390e-08    -8.493    -7.857     0.636

------------------------------Saturation indices-------------------------------

	Phase               SI log IAP  log KT

	Anhydrite        -0.15   -4.51   -4.36  CaSO4
	Aragonite        -0.14   -8.48   -8.34  CaCO3
	Calcite              0   -8.48   -8.48  CaCO3
	CH4(g)         -140.63 -143.49   -2.86  CH4
	CO2(g)           -1.22   -2.69   -1.47  CO2
	Dolomite             0  -17.09  -17.09  CaMg(CO3)2
	Gypsum           -0.12   -4.70   -4.58  CaSO4:2H2O
	H2(g)           -41.34  -44.49   -3.15  H2
	H2O(g)           -1.60   -0.09    1.51  H2O
	H2S(g)         -138.91 -139.90   -1.00  H2S
	Halite           -0.15    1.43    1.58  NaCl
	O2(g)            -0.62   -3.58   -2.96  O2
	Sulfur         -103.44  -98.56    4.88  S

Time 16000. Cell 19: x=          12000	y=           6000	z=              0
Using solution 19.
Using exchange 19
Using surface 19.
Using pure phase assemblage 19.

-------------------------------Phase assemblage--------------------------------

                                                      Moles in assemblage
Phase                  SI log IAP  log KT      Initial       Final       Delta

Calcite                 0   -8.48   -8.48    1.295e-01   1.309e-01   1.409e-03
Dolomite                0  -17.09  -17.09    1.582e+00   1.581e+00  -1.499e-03

------------------------------Surface composition------------------------------

Surf          
	  7.352e-02  Surface charge, eq
	  3.941e-01  sigma, C/m**2
	  7.505e-02  psi, V
	 -2.921e+00  -F*psi/RT
	  5.387e-02  exp(-F*psi/RT)
	  6.000e+02  specific area, m**2/g
	  1.800e+04  m**2 for   3.000e+01 g


Surf          
	  1.400e-01  moles
	                                   Mole                     Log
	Species               Moles    Fraction    Molality    Molality

	SurfOH2+          9.545e-02       0.682   9.543e-02      -1.020
	SurfOH            3.617e-02       0.258   3.616e-02      -1.442
	SurfOHAsO4-3      6.817e-03       0.049   6.816e-03      -2.166
	SurfHAsO4-        1.157e-03       0.008   1.157e-03      -2.937
	SurfO-            3.140e-04       0.002   3.139e-04      -3.503
	SurfH2AsO4        9.883e-05       0.001   9.881e-05      -4.005

-----------------------------Exchange composition------------------------------

X                5.000e-01 mol

	                               Equiv-    Equivalent      Log 
	Species             Moles      alents      Fraction     Gamma

	NaX               4.096e-01   4.096e-01   8.191e-01    -0.062
	CaX2              3.410e-02   6.821e-02   1.364e-01    -0.458
	MgX2              1.111e-02   2.223e-02   4.446e-02    -0.302

-----------------------------Solution composition------------------------------

	Elements           Molality       Moles

[...]
   CH4                    0.000e+00   0.000e+00  -144.321  -144.319     0.002
C(4)             1.054e-02
   HCO3-                  1.018e-02   8.975e-03    -1.992    -2.047    -0.055
   CO2                    1.356e-04   1.362e-04    -3.868    -3.866     0.002
   CO3-2                  1.034e-04   6.241e-05    -3.986    -4.205    -0.219
   NaHCO3                 7.967e-05   8.000e-05    -4.099    -4.097     0.002
   NaCO3-                 2.101e-05   1.842e-05    -4.678    -4.735    -0.057
   CaHCO3+                6.895e-06   6.078e-06    -5.161    -5.216    -0.055
   CaCO3                  5.542e-06   5.565e-06    -5.256    -5.255     0.002
   MgHCO3+                4.708e-06   4.129e-06    -5.327    -5.384    -0.057
   MgCO3                  2.332e-06   2.341e-06    -5.632    -5.631     0.002
Ca               1.018e-04
   Ca+2                   8.795e-05   5.308e-05    -4.056    -4.275    -0.219
   CaHCO3+                6.895e-06   6.078e-06    -5.161    -5.216    -0.055
   CaCO3                  5.542e-06   5.565e-06    -5.256    -5.255     0.002
   CaSO4                  1.412e-06   1.418e-06    -5.850    -5.848     0.002
   CaOH+                  1.489e-09   1.305e-09    -8.827    -8.884    -0.057
   CaHSO4+                6.388e-14   5.601e-14   -13.195   -13.252    -0.057
Cl               5.126e-03
   Cl-                    5.126e-03   4.480e-03    -2.290    -2.349    -0.058
H(0)             0.000e+00
   H2                     0.000e+00   0.000e+00   -44.363   -44.361     0.002
Mg               7.276e-05
   Mg+2                   6.447e-05   3.932e-05    -4.191    -4.405    -0.215
   MgHCO3+                4.708e-06   4.129e-06    -5.327    -5.384    -0.057
   MgCO3                  2.332e-06   2.341e-06    -5.632    -5.631     0.002
   MgSO4                  1.229e-06   1.234e-06    -5.911    -5.909     0.002
   MgOH+                  2.412e-08   2.115e-08    -7.618    -7.675    -0.057
Na               1.816e-02
   Na+                    1.804e-02   1.585e-02    -1.744    -1.800    -0.056
   NaHCO3                 7.967e-05   8.000e-05    -4.099    -4.097     0.002
   NaCO3-                 2.101e-05   1.842e-05    -4.678    -4.735    -0.057
   NaSO4-                 1.213e-05   1.063e-05    -4.916    -4.973    -0.057
   NaOH                   1.546e-08   1.552e-08    -7.811    -7.809     0.002
O(0)             4.372e-04
   O2                     2.186e-04   2.195e-04    -3.660    -3.659     0.002
S(-2)            0.000e+00
   HS-                    0.000e+00   0.000e+00  -143.179  -143.237    -0.059
   H2S                    0.000e+00   0.000e+00  -144.468  -144.467     0.002
   S-2                    0.000e+00   0.000e+00  -147.762  -147.984    -0.222
S(6)             2.384e-04
   SO4-2                  2.237e-04   1.339e-04    -3.650    -3.873    -0.223
   NaSO4-                 1.213e-05   1.063e-05    -4.916    -4.973    -0.057
   CaSO4                  1.412e-06   1.418e-06    -5.850    -5.848     0.002
   MgSO4                  1.229e-06   1.234e-06    -5.911    -5.909     0.002
   HSO4-                  1.001e-10   8.778e-11   -10.000   -10.057    -0.057
   CaHSO4+                6.388e-14   5.601e-14   -13.195   -13.252    -0.057

------------------------------Saturation indices-------------------------------

	Phase               SI log IAP  log KT

	Anhydrite        -3.79   -8.15   -4.36  CaSO4
	Aragonite        -0.14   -8.48   -8.34  CaCO3
	Calcite              0   -8.48   -8.48  CaCO3
	CH4(g)         -141.46 -144.32   -2.86  CH4
	CO2(g)           -2.40   -3.87   -1.47  CO2
	Dolomite             0  -17.09  -17.09  CaMg(CO3)2
	Gypsum           -3.57   -8.15   -4.58  CaSO4:2H2O
	H2(g)           -41.21  -44.36   -3.15  H2
	H2O(g)           -1.51       0    1.51  H2O
	H2S(g)         -143.47 -144.47   -1.00  H2S
	Halite           -5.73   -4.15    1.58  NaCl
	O2(g)            -0.70   -3.66   -2.96  O2
	Sulfur         -108.14 -103.26    4.88  S

Time 16000. Cell 425: x=          48000	y=          48000	z=            400
Using solution 425.
Using exchange 425
Using surface 425.
Using pure phase assemblage 425.

-------------------------------Phase assemblage--------------------------------

                                                      Moles in assemblage
Phase                  SI log IAP  log KT      Initial       Final       Delta

Calcite                 0   -8.48   -8.48    1.329e-01   1.324e-01  -5.012e-04
Dolomite                0  -17.09  -17.09    1.550e+00   1.550e+00  -8.766e-05

------------------------------Surface composition------------------------------

Surf          
	 -2.229e-03  Surface charge, eq
	 -1.195e-02  sigma, C/m**2
	 -4.411e-02  psi, V
	  1.717e+00  -F*psi/RT
	  5.568e+00  exp(-F*psi/RT)
	  6.000e+02  specific area, m**2/g
	  1.800e+04  m**2 for   3.000e+01 g


Surf          
	  1.400e-01  moles
	                                   Mole                     Log
	Species               Moles    Fraction    Molality    Molality

	SurfOH            9.560e-02       0.683   9.560e-02      -1.020
	SurfOH2+          2.914e-02       0.208   2.914e-02      -1.536
	SurfOHAsO4-3      8.055e-03       0.058   8.055e-03      -2.094
	SurfO-            7.186e-03       0.051   7.186e-03      -2.144
	SurfHAsO4-        1.676e-05           0   1.676e-05      -4.776
	SurfH2AsO4        1.653e-07           0   1.653e-07      -6.782

-----------------------------Exchange composition------------------------------

X                5.000e-01 mol

	                               Equiv-    Equivalent      Log 
	Species             Moles      alents      Fraction     Gamma

	NaX               2.163e-01   2.163e-01   4.327e-01    -0.046
	CaX2              9.687e-02   1.937e-01   3.875e-01    -0.181
	MgX2              4.496e-02   8.992e-02   1.798e-01    -0.178

-----------------------------Solution composition------------------------------

	Elements           Molality       Moles

	As                5.332e-07   5.332e-07
	C                 9.085e-03   9.085e-03
	Ca                4.722e-05   4.721e-05
	Cl                5.583e-04   5.583e-04
	Mg                3.296e-05   3.296e-05
	Na                1.086e-02   1.086e-02
	S                 2.354e-04   2.354e-04

----------------------------Description of solution----------------------------

                                       pH  =   8.552      Charge balance
                                       pe  =  12.054      Adjusted to redox equilibrium
                        Activity of water  =   1.000
                           Ionic strength  =   1.105e-02
                       Mass of water (kg)  =   1.000e+00
                 Total alkalinity (eq/kg)  =   9.274e-03
                       Total CO2 (mol/kg)  =   9.085e-03
                      Temperature (deg C)  =  25.000
                  Electrical balance (eq)  =   7.142e-04
 Percent error, 100*(Cat-|An|)/(Cat+|An|)  =   3.38
                               Iterations  =  13
                                  Total H  = 1.110192e+02
                                  Total O  = 5.553378e+01

----------------------------Distribution of species----------------------------

                                                   Log       Log         Log 
   Species                 Molality    Activity  Molality  Activity     Gamma

   OH-                    3.979e-06   3.565e-06    -5.400    -5.448    -0.048
   H+                     3.084e-09   2.807e-09    -8.511    -8.552    -0.041
   H2O                    5.551e+01   9.996e-01     1.744         0         0
As               5.332e-07
   HAsO4-2                5.225e-07   3.396e-07    -6.282    -6.469    -0.187
   H2AsO4-                9.684e-09   8.696e-09    -8.014    -8.061    -0.047
   AsO4-3                 1.008e-09   3.826e-10    -8.996    -9.417    -0.421
   H3AsO4                 4.232e-15   4.242e-15   -14.373   -14.372     0.001
C(-4)            0.000e+00
   CH4                    0.000e+00   0.000e+00  -144.756  -144.755     0.001
C(4)             9.085e-03
   HCO3-                  8.753e-03   7.890e-03    -2.058    -2.103    -0.045
   CO3-2                  1.997e-04   1.318e-04    -3.700    -3.880    -0.181
   CO2                    4.969e-05   4.982e-05    -4.304    -4.303     0.001
   NaHCO3                 4.289e-05   4.300e-05    -4.368    -4.367     0.001
   NaCO3-                 2.649e-05   2.378e-05    -4.577    -4.624    -0.047
   CaCO3                  5.551e-06   5.565e-06    -5.256    -5.255     0.001
   CaHCO3+                2.807e-06   2.530e-06    -5.552    -5.597    -0.045
   MgCO3                  2.336e-06   2.341e-06    -5.632    -5.631     0.001
   MgHCO3+                1.914e-06   1.719e-06    -5.718    -5.765    -0.047
Ca               4.722e-05
   Ca+2                   3.811e-05   2.513e-05    -4.419    -4.600    -0.181
   CaCO3                  5.551e-06   5.565e-06    -5.256    -5.255     0.001
   CaHCO3+                2.807e-06   2.530e-06    -5.552    -5.597    -0.045
   CaSO4                  7.415e-07   7.433e-07    -6.130    -6.129     0.001
   CaOH+                  1.654e-09   1.485e-09    -8.781    -8.828    -0.047
   CaHSO4+                1.362e-14   1.223e-14   -13.866   -13.913    -0.047
Cl               5.583e-04
   Cl-                    5.583e-04   5.004e-04    -3.253    -3.301    -0.048
H(0)             0.000e+00
   H2                     0.000e+00   0.000e+00   -44.362   -44.361     0.001
Mg               3.296e-05
   Mg+2                   2.804e-05   1.862e-05    -4.552    -4.730    -0.178
   MgCO3                  2.336e-06   2.341e-06    -5.632    -5.631     0.001
   MgHCO3+                1.914e-06   1.719e-06    -5.718    -5.765    -0.047
   MgSO4                  6.453e-07   6.469e-07    -6.190    -6.189     0.001
   MgOH+                  2.681e-08   2.407e-08    -7.572    -7.619    -0.047
Na               1.086e-02
   Na+                    1.078e-02   9.692e-03    -1.967    -2.014    -0.046
   NaHCO3                 4.289e-05   4.300e-05    -4.368    -4.367     0.001
   NaCO3-                 2.649e-05   2.378e-05    -4.577    -4.624    -0.047
   NaSO4-                 8.018e-06   7.200e-06    -5.096    -5.143    -0.047
   NaOH                   2.274e-08   2.280e-08    -7.643    -7.642     0.001
O(0)             4.375e-04
   O2                     2.187e-04   2.193e-04    -3.660    -3.659     0.001
S(-2)            0.000e+00
   HS-                    0.000e+00   0.000e+00  -143.525  -143.573    -0.048
   H2S                    0.000e+00   0.000e+00  -145.184  -145.183     0.001
   S-2                    0.000e+00   0.000e+00  -147.756  -147.939    -0.183
S(6)             2.354e-04
   SO4-2                  2.260e-04   1.482e-04    -3.646    -3.829    -0.183
   NaSO4-                 8.018e-06   7.200e-06    -5.096    -5.143    -0.047
   CaSO4                  7.415e-07   7.433e-07    -6.130    -6.129     0.001
   MgSO4                  6.453e-07   6.469e-07    -6.190    -6.189     0.001
   HSO4-                  4.506e-11   4.046e-11   -10.346   -10.393    -0.047
   CaHSO4+                1.362e-14   1.223e-14   -13.866   -13.913    -0.047

------------------------------Saturation indices-------------------------------

	Phase               SI log IAP  log KT

	Anhydrite        -4.07   -8.43   -4.36  CaSO4
	Aragonite        -0.14   -8.48   -8.34  CaCO3
	Calcite              0   -8.48   -8.48  CaCO3
	CH4(g)         -141.89 -144.75   -2.86  CH4
	CO2(g)           -2.83   -4.30   -1.47  CO2
	Dolomite             0  -17.09  -17.09  CaMg(CO3)2
	Gypsum           -3.85   -8.43   -4.58  CaSO4:2H2O
	H2(g)           -41.21  -44.36   -3.15  H2
	H2O(g)           -1.51       0    1.51  H2O
	H2S(g)         -144.19 -145.18   -1.00  H2S
	Halite           -6.90   -5.31    1.58  NaCl
	O2(g)            -0.70   -3.66   -2.96  O2
	Sulfur         -108.85 -103.97    4.88  S

Time 16000. Cell 426: x=          54000	y=          48000	z=            400
Using solution 426.
Using exchange 426
Using surface 426.
Using pure phase assemblage 426.

-------------------------------Phase assemblage--------------------------------

                                                      Moles in assemblage
Phase                  SI log IAP  log KT      Initial       Final       Delta

Calcite                 0   -8.48   -8.48    1.252e-01   1.246e-01  -5.918e-04
Dolomite                0  -17.09  -17.09    1.552e+00   1.552e+00  -3.294e-05

------------------------------Surface composition------------------------------

Surf          
	 -2.343e-03  Surface charge, eq
	 -1.256e-02  sigma, C/m**2
	 -4.824e-02  psi, V
	  1.878e+00  -F*psi/RT
	  6.539e+00  exp(-F*psi/RT)
	  6.000e+02  specific area, m**2/g
	  1.800e+04  m**2 for   3.000e+01 g


Surf          
	  1.400e-01  moles
	                                   Mole                     Log
	Species               Moles    Fraction    Molality    Molality

	SurfOH            9.566e-02       0.683   9.566e-02      -1.019
	SurfOH2+          2.905e-02       0.208   2.905e-02      -1.537
	SurfOHAsO4-3      8.054e-03       0.058   8.054e-03      -2.094
	SurfO-            7.216e-03       0.052   7.216e-03      -2.142
	SurfHAsO4-        1.663e-05           0   1.663e-05      -4.779
	SurfH2AsO4        1.635e-07           0   1.635e-07      -6.787

-----------------------------Exchange composition------------------------------

X                5.000e-01 mol

	                               Equiv-    Equivalent      Log 
	Species             Moles      alents      Fraction     Gamma

	NaX               2.003e-01   2.003e-01   4.006e-01    -0.044
	CaX2              1.023e-01   2.046e-01   4.093e-01    -0.172
	MgX2              4.752e-02   9.505e-02   1.901e-01    -0.169

-----------------------------Solution composition------------------------------

	Elements           Molality       Moles

	As                7.140e-07   7.140e-07
	C                 8.449e-03   8.449e-03
	Ca                4.254e-05   4.254e-05
	Cl                1.846e-04   1.846e-04
	Mg                2.956e-05   2.956e-05
	Na                9.228e-03   9.228e-03
	S                 2.351e-04   2.351e-04

----------------------------Description of solution----------------------------

                                       pH  =   8.623      Charge balance
                                       pe  =  11.982      Adjusted to redox equilibrium
                        Activity of water  =   1.000
                           Ionic strength  =   9.758e-03
                       Mass of water (kg)  =   1.000e+00
                 Total alkalinity (eq/kg)  =   8.663e-03
                       Total CO2 (mol/kg)  =   8.449e-03
                      Temperature (deg C)  =  25.000
                  Electrical balance (eq)  =   5.342e-05
 Percent error, 100*(Cat-|An|)/(Cat+|An|)  =   0.29
                               Iterations  =  11
                                  Total H  = 1.110185e+02
                                  Total O  = 5.553187e+01

----------------------------Distribution of species----------------------------

                                                   Log       Log         Log 
   Species                 Molality    Activity  Molality  Activity     Gamma

   OH-                    4.662e-06   4.201e-06    -5.331    -5.377    -0.045
   H+                     2.605e-09   2.382e-09    -8.584    -8.623    -0.039
   H2O                    5.551e+01   9.997e-01     1.744         0         0
As               7.140e-07
   HAsO4-2                7.012e-07   4.663e-07    -6.154    -6.331    -0.177
   H2AsO4-                1.122e-08   1.013e-08    -7.950    -7.994    -0.044
   AsO4-3                 1.550e-09   6.191e-10    -8.810    -9.208    -0.399
   H3AsO4                 4.184e-15   4.193e-15   -14.378   -14.377     0.001
C(-4)            0.000e+00
   CH4                    0.000e+00   0.000e+00  -144.857  -144.856     0.001
C(4)             8.449e-03
   HCO3-                  8.124e-03   7.361e-03    -2.090    -2.133    -0.043
   CO3-2                  2.150e-04   1.449e-04    -3.668    -3.839    -0.171
   CO2                    3.935e-05   3.944e-05    -4.405    -4.404     0.001
   NaHCO3                 3.421e-05   3.429e-05    -4.466    -4.465     0.001
   NaCO3-                 2.475e-05   2.235e-05    -4.606    -4.651    -0.044
   CaCO3                  5.552e-06   5.565e-06    -5.256    -5.255     0.001
   CaHCO3+                2.369e-06   2.147e-06    -5.625    -5.668    -0.043
   MgCO3                  2.336e-06   2.341e-06    -5.631    -5.631     0.001
   MgHCO3+                1.615e-06   1.458e-06    -5.792    -5.836    -0.044
Ca               4.254e-05
   Ca+2                   3.393e-05   2.286e-05    -4.469    -4.641    -0.172
   CaCO3                  5.552e-06   5.565e-06    -5.256    -5.255     0.001
   CaHCO3+                2.369e-06   2.147e-06    -5.625    -5.668    -0.043
   CaSO4                  6.921e-07   6.936e-07    -6.160    -6.159     0.001
   CaOH+                  1.763e-09   1.592e-09    -8.754    -8.798    -0.044
   CaHSO4+                1.072e-14   9.679e-15   -13.970   -14.014    -0.044
Cl               1.846e-04
   Cl-                    1.846e-04   1.665e-04    -3.734    -3.779    -0.045
H(0)             0.000e+00
   H2                     0.000e+00   0.000e+00   -44.362   -44.361     0.001
Mg               2.956e-05
   Mg+2                   2.497e-05   1.693e-05    -4.603    -4.771    -0.169
   MgCO3                  2.336e-06   2.341e-06    -5.631    -5.631     0.001
   MgHCO3+                1.615e-06   1.458e-06    -5.792    -5.836    -0.044
   MgSO4                  6.023e-07   6.036e-07    -6.220    -6.219     0.001
   MgOH+                  2.857e-08   2.580e-08    -7.544    -7.588    -0.044
Na               9.228e-03
   Na+                    9.162e-03   8.283e-03    -2.038    -2.082    -0.044
   NaHCO3                 3.421e-05   3.429e-05    -4.466    -4.465     0.001
   NaCO3-                 2.475e-05   2.235e-05    -4.606    -4.651    -0.044
   NaSO4-                 6.992e-06   6.314e-06    -5.155    -5.200    -0.044
   NaOH                   2.292e-08   2.297e-08    -7.640    -7.639     0.001
O(0)             4.375e-04
   O2                     2.187e-04   2.192e-04    -3.660    -3.659     0.001
S(-2)            0.000e+00
   HS-                    0.000e+00   0.000e+00  -143.588  -143.633    -0.045
   H2S                    0.000e+00   0.000e+00  -145.315  -145.314     0.001
   S-2                    0.000e+00   0.000e+00  -147.755  -147.928    -0.173
S(6)             2.351e-04
   SO4-2                  2.268e-04   1.521e-04    -3.644    -3.818    -0.174
   NaSO4-                 6.992e-06   6.314e-06    -5.155    -5.200    -0.044
   CaSO4                  6.921e-07   6.936e-07    -6.160    -6.159     0.001
   MgSO4                  6.023e-07   6.036e-07    -6.220    -6.219     0.001
   HSO4-                  3.901e-11   3.522e-11   -10.409   -10.453    -0.044
   CaHSO4+                1.072e-14   9.679e-15   -13.970   -14.014    -0.044

------------------------------Saturation indices-------------------------------

	Phase               SI log IAP  log KT

	Anhydrite        -4.10   -8.46   -4.36  CaSO4
	Aragonite        -0.14   -8.48   -8.34  CaCO3
	Calcite              0   -8.48   -8.48  CaCO3
	CH4(g)         -142.00 -144.86   -2.86  CH4
	CO2(g)           -2.94   -4.40   -1.47  CO2
	Dolomite             0  -17.09  -17.09  CaMg(CO3)2
	Gypsum           -3.88   -8.46   -4.58  CaSO4:2H2O
	H2(g)           -41.21  -44.36   -3.15  H2
	H2O(g)           -1.51       0    1.51  H2O
	H2S(g)         -144.32 -145.31   -1.00  H2S
	Halite           -7.44   -5.86    1.58  NaCl
	O2(g)            -0.70   -3.66   -2.96  O2
	Sulfur         -108.99 -104.10    4.88  S

Time 16000. Cell 428: x=          66000	y=          48000	z=            400
Cell is dry.
Time 16000. Cell 430: x=          78000	y=          48000	z=            400
Cell is dry.
Time 16000. Cell 432: x=          90000	y=          48000	z=            400
Cell is dry.
