Output file:    print_check_transient.O.chem
Chemistry file: print_check_transient.chem.dat
Database file:  phast.dat

------------------
Reading data base.
------------------

	SOLUTION_MASTER_SPECIES
	SOLUTION_SPECIES
	PHASES
	EXCHANGE_MASTER_SPECIES
	EXCHANGE_SPECIES
	SURFACE_MASTER_SPECIES
	SURFACE_SPECIES
	RATES
	END
------------------------------------
Reading input data for simulation 1.
------------------------------------

	SURFACE_MASTER_SPECIES
	        Surf    SurfOH
	SURFACE_SPECIES
	        SurfOH = SurfOH
	                log_k   0.0
	        SurfOH  + H+ = SurfOH2+
	                log_k   7.29
	        SurfOH = SurfO- + H+
	                log_k   -8.93
	        SurfOH + AsO4-3 + 3H+ = SurfH2AsO4 + H2O
	                log_k   29.31
	        SurfOH + AsO4-3 + 2H+ = SurfHAsO4- + H2O
	                log_k   23.51
	        SurfOH + AsO4-3 = SurfOHAsO4-3
	                log_k   10.58
	SOLUTION_MASTER_SPECIES
	        As       H3AsO4        -1.0     74.9216         74.9216
	SOLUTION_SPECIES
		H3AsO4 = H2AsO4- + H+
		log_k	-2.3
		delta_h	-7.066	kJ
		H3AsO4 = HAsO4-2 + 2H+
		log_k	-9.46
		delta_h	-3.846	kJ
		H3AsO4 = AsO4-3 + 3H+
		log_k	-21.11
		delta_h	14.354	kJ
	        H3AsO4 = H2AsO4- + H+ 
	        log_k           -2.243
	        delta_h -1.69 kcal
	        H3AsO4 = HAsO4-2 + 2H+ 
	        log_k           -9.001
	        delta_h -0.92 kcal
	        H3AsO4 = AsO4-3 + 3H+
	        log_k           -20.597
	        delta_h 3.43 kcal
	        H3AsO4 = H3AsO4
	        log_k           0.0
	        H3AsO4 = AsO4-3 + 3H+
	        log_k   -20.7
	        H+ + AsO4-3 = HAsO4-2
	        log_k   11.50
	        2H+ + AsO4-3 = H2AsO4-
	        log_k           18.46
	SOLUTION 1 20 x precipitation
	        pH      4.6
	        pe      4.0     O2(g)   -0.7
	        temp    25.
	        units   mmol/kgw
	        Ca      .191625
	        Mg      .035797
	        Na      .122668
	        Cl      .133704
	        C       .01096
	        S       .235153         charge
	END
-------------------------------------------
Beginning of initial solution calculations.
-------------------------------------------

Initial solution 1.	20 x precipitation

-----------------------------Solution composition------------------------------

	Elements           Molality       Moles

	C                 1.096e-05   1.096e-05
	Ca                1.916e-04   1.916e-04
	Cl                1.337e-04   1.337e-04
	Mg                3.580e-05   3.580e-05
	Na                1.227e-04   1.227e-04
	S                 2.351e-04   2.351e-04  Charge balance

----------------------------Description of solution----------------------------

                                       pH  =   4.600    
                                       pe  =  16.005      Equilibrium with O2(g)
                        Activity of water  =   1.000
                           Ionic strength  =   1.035e-03
                       Mass of water (kg)  =   1.000e+00
                 Total alkalinity (eq/kg)  =  -2.630e-05
                       Total CO2 (mol/kg)  =   1.096e-05
                      Temperature (deg C)  =  25.000
                  Electrical balance (eq)  =   7.111e-16
 Percent error, 100*(Cat-|An|)/(Cat+|An|)  =      0
                               Iterations  =   9
                                  Total H  = 1.110125e+02
                                  Total O  = 5.550762e+01

----------------------------Distribution of species----------------------------

                                                   Log       Log         Log 
   Species                 Molality    Activity  Molality  Activity     Gamma

   H+                     2.600e-05   2.512e-05    -4.585    -4.600    -0.015
   OH-                    4.133e-10   3.985e-10    -9.384    -9.400    -0.016
   H2O                    5.551e+01   1.000e+00     1.744         0         0
C(-4)            0.000e+00
   CH4                    0.000e+00   0.000e+00  -145.418  -145.418         0
C(4)             1.096e-05
   CO2                    1.076e-05   1.076e-05    -4.968    -4.968         0
   HCO3-                  1.975e-07   1.906e-07    -6.704    -6.720    -0.015
   CaHCO3+                4.048e-10   3.907e-10    -9.393    -9.408    -0.015
   MgHCO3+                6.905e-11   6.660e-11   -10.161   -10.177    -0.016
   NaHCO3                 1.267e-11   1.267e-11   -10.897   -10.897         0
   CO3-2                  4.105e-13   3.559e-13   -12.387   -12.449    -0.062
   CaCO3                  9.601e-14   9.603e-14   -13.018   -13.018         0
   MgCO3                  1.014e-14   1.014e-14   -13.994   -13.994         0
   NaCO3-                 8.122e-16   7.833e-16   -15.090   -15.106    -0.016
Ca               1.916e-04
   Ca+2                   1.853e-04   1.606e-04    -3.732    -3.794    -0.062
   CaSO4                  6.296e-06   6.297e-06    -5.201    -5.201         0
   CaHSO4+                9.608e-10   9.267e-10    -9.017    -9.033    -0.016
   CaHCO3+                4.048e-10   3.907e-10    -9.393    -9.408    -0.015
   CaOH+                  1.100e-12   1.061e-12   -11.958   -11.974    -0.016
   CaCO3                  9.601e-14   9.603e-14   -13.018   -13.018         0
Cl               1.337e-04
   Cl-                    1.337e-04   1.289e-04    -3.874    -3.890    -0.016
H(0)             0.000e+00
   H2                     0.000e+00   0.000e+00   -44.360   -44.360         0
Mg               3.580e-05
   Mg+2                   3.442e-05   2.986e-05    -4.463    -4.525    -0.062
   MgSO4                  1.375e-06   1.375e-06    -5.862    -5.862         0
   MgHCO3+                6.905e-11   6.660e-11   -10.161   -10.177    -0.016
   MgOH+                  4.475e-12   4.316e-12   -11.349   -11.365    -0.016
   MgCO3                  1.014e-14   1.014e-14   -13.994   -13.994         0
Na               1.227e-04
   Na+                    1.225e-04   1.182e-04    -3.912    -3.927    -0.016
   NaSO4-                 1.207e-07   1.164e-07    -6.918    -6.934    -0.016
   NaHCO3                 1.267e-11   1.267e-11   -10.897   -10.897         0
   NaOH                   3.109e-14   3.109e-14   -13.507   -13.507         0
   NaCO3-                 8.122e-16   7.833e-16   -15.090   -15.106    -0.016
O(0)             4.374e-04
   O2                     2.187e-04   2.188e-04    -3.660    -3.660         0
S(-2)            0.000e+00
   H2S                    0.000e+00   0.000e+00  -137.155  -137.155         0
   HS-                    0.000e+00   0.000e+00  -139.481  -139.497    -0.016
   S-2                    0.000e+00   0.000e+00  -147.752  -147.815    -0.062
S(6)             2.351e-04
   SO4-2                  2.268e-04   1.965e-04    -3.644    -3.707    -0.062
   CaSO4                  6.296e-06   6.297e-06    -5.201    -5.201         0
   MgSO4                  1.375e-06   1.375e-06    -5.862    -5.862         0
   HSO4-                  4.975e-07   4.798e-07    -6.303    -6.319    -0.016
   NaSO4-                 1.207e-07   1.164e-07    -6.918    -6.934    -0.016
   CaHSO4+                9.608e-10   9.267e-10    -9.017    -9.033    -0.016

------------------------------Saturation indices-------------------------------

	Phase               SI log IAP  log KT

	Anhydrite        -3.14   -7.50   -4.36  CaSO4
	Aragonite        -7.91  -16.24   -8.34  CaCO3
	Calcite          -7.76  -16.24   -8.48  CaCO3
	CH4(g)         -142.56 -145.42   -2.86  CH4
	CO2(g)           -3.50   -4.97   -1.47  CO2
	Dolomite        -16.13  -33.22  -17.09  CaMg(CO3)2
	Gypsum           -2.92   -7.50   -4.58  CaSO4:2H2O
	H2(g)           -41.21  -44.36   -3.15  H2
	H2O(g)           -1.51       0    1.51  H2O
	H2S(g)         -136.16 -137.16   -1.00  H2S
	Halite           -9.40   -7.82    1.58  NaCl
	O2(g)            -0.70   -3.66   -2.96  O2
	Sulfur         -100.83  -95.95    4.88  S

------------------
End of simulation.
------------------

------------------------------------
Reading input data for simulation 2.
------------------------------------

	USE solution 1
	EQUILIBRIUM_PHASES 1
	        Dolomite        0.0     1.6
	        Calcite         0.0     0.1
	        CO2(g)          -1.5    100.
	SAVE solution 1
	END
-----------------------------------------
Beginning of batch-reaction calculations.
-----------------------------------------

Reaction step 1.

-------------------------------Phase assemblage--------------------------------

                                                      Moles in assemblage
Phase                  SI log IAP  log KT      Initial       Final       Delta

Calcite                 0   -8.48   -8.48    1.000e-01   9.966e-02  -3.441e-04
CO2(g)              -1.50   -2.97   -1.47    1.000e+02   1.000e+02  -4.066e-03
Dolomite                0  -17.09  -17.09    1.600e+00   1.599e+00  -1.349e-03

-----------------------------Solution composition------------------------------

	Elements           Molality       Moles

	C                 7.119e-03   7.119e-03
	Ca                1.885e-03   1.884e-03
	Cl                1.337e-04   1.337e-04
	Mg                1.385e-03   1.385e-03
	Na                1.227e-04   1.227e-04
	S                 2.351e-04   2.351e-04

----------------------------Description of solution----------------------------

                                       pH  =   7.047      Charge balance
                                       pe  =  13.558      Adjusted to redox equilibrium
                        Activity of water  =   1.000
                           Ionic strength  =   9.629e-03
                       Mass of water (kg)  =   9.999e-01
                 Total alkalinity (eq/kg)  =   6.057e-03
                       Total CO2 (mol/kg)  =   7.119e-03
                      Temperature (deg C)  =  25.000
                  Electrical balance (eq)  =   2.136e-15
 Percent error, 100*(Cat-|An|)/(Cat+|An|)  =      0
                               Iterations  =   9
                                  Total H  = 1.110125e+02
                                  Total O  = 5.552487e+01

----------------------------Distribution of species----------------------------

                                                   Log       Log         Log 
   Species                 Molality    Activity  Molality  Activity     Gamma

   OH-                    1.236e-07   1.115e-07    -6.908    -6.953    -0.045
   H+                     9.814e-08   8.977e-08    -7.008    -7.047    -0.039
   H2O                    5.551e+01   9.998e-01     1.744         0         0
C(-4)            0.000e+00
   CH4                    0.000e+00   0.000e+00  -143.421  -143.420     0.001
C(4)             7.119e-03
   HCO3-                  5.883e-03   5.333e-03    -2.230    -2.273    -0.043
   CO2                    1.074e-03   1.077e-03    -2.969    -2.968     0.001
   CaHCO3+                8.923e-05   8.090e-05    -4.049    -4.092    -0.043
   MgHCO3+                6.082e-05   5.496e-05    -4.216    -4.260    -0.044
   CaCO3                  5.553e-06   5.565e-06    -5.256    -5.255     0.001
   CO3-2                  4.124e-06   2.786e-06    -5.385    -5.555    -0.170
   MgCO3                  2.336e-06   2.341e-06    -5.631    -5.631     0.001
   NaHCO3                 3.310e-07   3.317e-07    -6.480    -6.479     0.001
   NaCO3-                 6.350e-09   5.738e-09    -8.197    -8.241    -0.044
Ca               1.885e-03
   Ca+2                   1.761e-03   1.189e-03    -2.754    -2.925    -0.171
   CaHCO3+                8.923e-05   8.090e-05    -4.049    -4.092    -0.043
   CaSO4                  2.881e-05   2.888e-05    -4.540    -4.539     0.001
   CaCO3                  5.553e-06   5.565e-06    -5.256    -5.255     0.001
   CaOH+                  2.432e-09   2.198e-09    -8.614    -8.658    -0.044
   CaHSO4+                1.681e-11   1.519e-11   -10.775   -10.819    -0.044
Cl               1.337e-04
   Cl-                    1.337e-04   1.206e-04    -3.874    -3.919    -0.045
H(0)             0.000e+00
   H2                     0.000e+00   0.000e+00   -44.361   -44.361     0.001
Mg               1.385e-03
   Mg+2                   1.296e-03   8.807e-04    -2.887    -3.055    -0.168
   MgHCO3+                6.082e-05   5.496e-05    -4.216    -4.260    -0.044
   MgSO4                  2.507e-05   2.513e-05    -4.601    -4.600     0.001
   MgCO3                  2.336e-06   2.341e-06    -5.631    -5.631     0.001
   MgOH+                  3.941e-08   3.561e-08    -7.404    -7.448    -0.044
Na               1.227e-04
   Na+                    1.223e-04   1.106e-04    -3.913    -3.956    -0.044
   NaHCO3                 3.310e-07   3.317e-07    -6.480    -6.479     0.001
   NaSO4-                 7.467e-08   6.747e-08    -7.127    -7.171    -0.044
   NaCO3-                 6.350e-09   5.738e-09    -8.197    -8.241    -0.044
   NaOH                   8.120e-12   8.138e-12   -11.090   -11.089     0.001
O(0)             4.375e-04
   O2                     2.187e-04   2.192e-04    -3.660    -3.659     0.001
S(-2)            0.000e+00
   HS-                    0.000e+00   0.000e+00  -142.108  -142.153    -0.045
   H2S                    0.000e+00   0.000e+00  -142.259  -142.258     0.001
   S-2                    0.000e+00   0.000e+00  -147.852  -148.024    -0.172
S(6)             2.351e-04
   SO4-2                  1.811e-04   1.217e-04    -3.742    -3.915    -0.173
   CaSO4                  2.881e-05   2.888e-05    -4.540    -4.539     0.001
   MgSO4                  2.507e-05   2.513e-05    -4.601    -4.600     0.001
   NaSO4-                 7.467e-08   6.747e-08    -7.127    -7.171    -0.044
   HSO4-                  1.176e-09   1.062e-09    -8.930    -8.974    -0.044
   CaHSO4+                1.681e-11   1.519e-11   -10.775   -10.819    -0.044

------------------------------Saturation indices-------------------------------

	Phase               SI log IAP  log KT

	Anhydrite        -2.48   -6.84   -4.36  CaSO4
	Aragonite        -0.14   -8.48   -8.34  CaCO3
	Calcite              0   -8.48   -8.48  CaCO3
	CH4(g)         -140.56 -143.42   -2.86  CH4
	CO2(g)           -1.50   -2.97   -1.47  CO2
	Dolomite             0  -17.09  -17.09  CaMg(CO3)2
	Gypsum           -2.26   -6.84   -4.58  CaSO4:2H2O
	H2(g)           -41.21  -44.36   -3.15  H2
	H2O(g)           -1.51       0    1.51  H2O
	H2S(g)         -141.26 -142.26   -1.00  H2S
	Halite           -9.46   -7.87    1.58  NaCl
	O2(g)            -0.70   -3.66   -2.96  O2
	Sulfur         -105.93 -101.05    4.88  S

------------------
End of simulation.
------------------

------------------------------------
Reading input data for simulation 3.
------------------------------------

	SOLUTION 2 Brine
	        pH      5.713
	        pe      4.0     O2(g)   -0.7
	        temp    25.
	        units   mol/kgw
	        Ca      .4655
	        Mg      .1609
	        Na      5.402
	        Cl      6.642           charge
	        C       .00396
	        S       .004725
	        As      .01 umol/kgw
	END
-------------------------------------------
Beginning of initial solution calculations.
-------------------------------------------

Initial solution 2.	Brine

-----------------------------Solution composition------------------------------

	Elements           Molality       Moles

	As                1.000e-08   1.000e-08
	C                 3.960e-03   3.960e-03
	Ca                4.655e-01   4.655e-01
	Cl                6.642e+00   6.642e+00  Charge balance
	Mg                1.609e-01   1.609e-01
	Na                5.402e+00   5.402e+00
	S                 4.725e-03   4.725e-03

----------------------------Description of solution----------------------------

                                       pH  =   5.713    
                                       pe  =  14.945      Equilibrium with O2(g)
                        Activity of water  =   0.785
                           Ionic strength  =   7.266e+00
                       Mass of water (kg)  =   1.000e+00
                 Total alkalinity (eq/kg)  =   3.758e-03
                       Total CO2 (mol/kg)  =   3.960e-03
                      Temperature (deg C)  =  25.000
                  Electrical balance (eq)  =   1.027e-12
 Percent error, 100*(Cat-|An|)/(Cat+|An|)  =      0
                               Iterations  =  11
                                  Total H  = 1.110162e+02
                                  Total O  = 5.553688e+01

----------------------------Distribution of species----------------------------

                                                   Log       Log         Log 
   Species                 Molality    Activity  Molality  Activity     Gamma

   H+                     2.755e-06   1.936e-06    -5.560    -5.713    -0.153
   OH-                    8.773e-09   4.056e-09    -8.057    -8.392    -0.335
   H2O                    5.551e+01   7.846e-01     1.744    -0.105         0
As               1.000e-08
   H2AsO4-                9.993e-09   5.476e-08    -8.000    -7.262     0.739
   H3AsO4                 3.458e-12   1.843e-11   -11.461   -10.735     0.727
   HAsO4-2                3.440e-12   3.100e-09   -11.463    -8.509     2.955
   AsO4-3                 1.137e-21   5.063e-15   -20.944   -14.296     6.649
C(-4)            0.000e+00
   CH4                    0.000e+00   0.000e+00  -144.357  -143.631     0.727
C(4)             3.960e-03
   CaHCO3+                3.015e-03   1.745e-03    -2.521    -2.758    -0.238
   HCO3-                  3.336e-04   1.931e-04    -3.477    -3.714    -0.238
   MgHCO3+                2.161e-04   1.184e-03    -3.665    -2.927     0.739
   CO2                    2.010e-04   1.071e-03    -3.697    -2.970     0.727
   NaHCO3                 1.924e-04   1.025e-03    -3.716    -2.989     0.727
   CaCO3                  1.044e-06   5.564e-06    -5.981    -5.255     0.727
   MgCO3                  4.389e-07   2.339e-06    -6.358    -5.631     0.727
   NaCO3-                 1.500e-07   8.221e-07    -6.824    -6.085     0.739
   CO3-2                  4.170e-08   4.676e-09    -7.380    -8.330    -0.950
Ca               4.655e-01
   Ca+2                   4.609e-01   7.084e-01    -0.336    -0.150     0.187
   CaHCO3+                3.015e-03   1.745e-03    -2.521    -2.758    -0.238
   CaSO4                  1.600e-03   8.528e-03    -2.796    -2.069     0.727
   CaCO3                  1.044e-06   5.564e-06    -5.981    -5.255     0.727
   CaHSO4+                1.766e-08   9.674e-08    -7.753    -7.014     0.739
   CaOH+                  8.693e-09   4.763e-08    -8.061    -7.322     0.739
Cl               6.642e+00
   Cl-                    6.642e+00   3.946e+00     0.822     0.596    -0.226
H(0)             0.000e+00
   H2                     0.000e+00   0.000e+00   -45.192   -44.465     0.727
Mg               1.609e-01
   Mg+2                   1.593e-01   5.242e-01    -0.798    -0.280     0.517
   MgSO4                  1.391e-03   7.415e-03    -2.857    -2.130     0.727
   MgHCO3+                2.161e-04   1.184e-03    -3.665    -2.927     0.739
   MgCO3                  4.389e-07   2.339e-06    -6.358    -5.631     0.727
   MgOH+                  1.407e-07   7.712e-07    -6.852    -6.113     0.739
Na               5.402e+00
   Na+                    5.401e+00   9.442e+00     0.732     0.975     0.243
   NaSO4-                 5.211e-04   2.855e-03    -3.283    -2.544     0.739
   NaHCO3                 1.924e-04   1.025e-03    -3.716    -2.989     0.727
   NaCO3-                 1.500e-07   8.221e-07    -6.824    -6.085     0.739
   NaOH                   4.743e-09   2.528e-08    -8.324    -7.597     0.727
O(0)             8.211e-05
   O2                     4.106e-05   2.188e-04    -4.387    -3.660     0.727
S(-2)            0.000e+00
   H2S                    0.000e+00   0.000e+00  -140.620  -139.894     0.727
   HS-                    0.000e+00   0.000e+00  -140.787  -141.122    -0.335
   S-2                    0.000e+00   0.000e+00  -147.315  -148.327    -1.012
S(6)             4.725e-03
   CaSO4                  1.600e-03   8.528e-03    -2.796    -2.069     0.727
   MgSO4                  1.391e-03   7.415e-03    -2.857    -2.130     0.727
   SO4-2                  1.212e-03   6.034e-05    -2.916    -4.219    -1.303
   NaSO4-                 5.211e-04   2.855e-03    -3.283    -2.544     0.739
   CaHSO4+                1.766e-08   9.674e-08    -7.753    -7.014     0.739
   HSO4-                  2.073e-09   1.136e-08    -8.683    -7.945     0.739

------------------------------Saturation indices-------------------------------

	Phase               SI log IAP  log KT

	Anhydrite        -0.01   -4.37   -4.36  CaSO4
	Aragonite        -0.14   -8.48   -8.34  CaCO3
	Calcite              0   -8.48   -8.48  CaCO3
	CH4(g)         -140.77 -143.63   -2.86  CH4
	CO2(g)           -1.50   -2.97   -1.47  CO2
	Dolomite             0  -17.09  -17.09  CaMg(CO3)2
	Gypsum               0   -4.58   -4.58  CaSO4:2H2O
	H2(g)           -41.32  -44.47   -3.15  H2
	H2O(g)           -1.62   -0.11    1.51  H2O
	H2S(g)         -138.90 -139.89   -1.00  H2S
	Halite           -0.01    1.57    1.58  NaCl
	O2(g)            -0.70   -3.66   -2.96  O2
	Sulfur         -103.46  -98.58    4.88  S

------------------
End of simulation.
------------------

------------------------------------
Reading input data for simulation 4.
------------------------------------

	USE solution 2
	EQUILIBRIUM_PHASES 2
	        Dolomite        0.0     1.6
	        Calcite         0.0     0.1
	SAVE solution 2
	END
-----------------------------------------
Beginning of batch-reaction calculations.
-----------------------------------------

Reaction step 1.

-------------------------------Phase assemblage--------------------------------

                                                      Moles in assemblage
Phase                  SI log IAP  log KT      Initial       Final       Delta

Calcite                 0   -8.48   -8.48    1.000e-01   1.002e-01   2.185e-04
Dolomite                0  -17.09  -17.09    1.600e+00   1.600e+00  -1.093e-04

-----------------------------Solution composition------------------------------

	Elements           Molality       Moles

	As                1.000e-08   1.000e-08
	C                 3.960e-03   3.960e-03
	Ca                4.654e-01   4.654e-01
	Cl                6.642e+00   6.642e+00
	Mg                1.610e-01   1.610e-01
	Na                5.402e+00   5.402e+00
	S                 4.725e-03   4.725e-03

----------------------------Description of solution----------------------------

                                       pH  =   5.713      Charge balance
                                       pe  =  14.945      Adjusted to redox equilibrium
                        Activity of water  =   0.785
                           Ionic strength  =   7.266e+00
                       Mass of water (kg)  =   1.000e+00
                 Total alkalinity (eq/kg)  =   3.758e-03
                       Total CO2 (mol/kg)  =   3.960e-03
                      Temperature (deg C)  =  25.000
                  Electrical balance (eq)  =   1.033e-12
 Percent error, 100*(Cat-|An|)/(Cat+|An|)  =      0
                               Iterations  =   2
                                  Total H  = 1.110162e+02
                                  Total O  = 5.553688e+01

----------------------------Distribution of species----------------------------

                                                   Log       Log         Log 
   Species                 Molality    Activity  Molality  Activity     Gamma

   H+                     2.754e-06   1.936e-06    -5.560    -5.713    -0.153
   OH-                    8.776e-09   4.057e-09    -8.057    -8.392    -0.335
   H2O                    5.551e+01   7.846e-01     1.744    -0.105         0
As               1.000e-08
   H2AsO4-                9.993e-09   5.476e-08    -8.000    -7.262     0.739
   H3AsO4                 3.457e-12   1.842e-11   -11.461   -10.735     0.727
   HAsO4-2                3.441e-12   3.101e-09   -11.463    -8.508     2.955
   AsO4-3                 1.138e-21   5.066e-15   -20.944   -14.295     6.649
C(-4)            0.000e+00
   CH4                    0.000e+00   0.000e+00  -144.357  -143.631     0.727
C(4)             3.960e-03
   CaHCO3+                3.015e-03   1.745e-03    -2.521    -2.758    -0.238
   HCO3-                  3.337e-04   1.931e-04    -3.477    -3.714    -0.238
   MgHCO3+                2.163e-04   1.185e-03    -3.665    -2.926     0.739
   CO2                    2.010e-04   1.071e-03    -3.697    -2.970     0.727
   NaHCO3                 1.924e-04   1.025e-03    -3.716    -2.989     0.727
   CaCO3                  1.044e-06   5.565e-06    -5.981    -5.255     0.727
   MgCO3                  4.394e-07   2.341e-06    -6.357    -5.631     0.727
   NaCO3-                 1.501e-07   8.224e-07    -6.824    -6.085     0.739
   CO3-2                  4.171e-08   4.678e-09    -7.380    -8.330    -0.950
Ca               4.654e-01
   Ca+2                   4.608e-01   7.082e-01    -0.337    -0.150     0.187
   CaHCO3+                3.015e-03   1.745e-03    -2.521    -2.758    -0.238
   CaSO4                  1.600e-03   8.525e-03    -2.796    -2.069     0.727
   CaCO3                  1.044e-06   5.565e-06    -5.981    -5.255     0.727
   CaHSO4+                1.764e-08   9.668e-08    -7.753    -7.015     0.739
   CaOH+                  8.693e-09   4.763e-08    -8.061    -7.322     0.739
Cl               6.642e+00
   Cl-                    6.642e+00   3.946e+00     0.822     0.596    -0.226
H(0)             0.000e+00
   H2                     0.000e+00   0.000e+00   -45.192   -44.465     0.727
Mg               1.610e-01
   Mg+2                   1.594e-01   5.246e-01    -0.798    -0.280     0.517
   MgSO4                  1.392e-03   7.419e-03    -2.856    -2.130     0.727
   MgHCO3+                2.163e-04   1.185e-03    -3.665    -2.926     0.739
   MgCO3                  4.394e-07   2.341e-06    -6.357    -5.631     0.727
   MgOH+                  1.409e-07   7.719e-07    -6.851    -6.112     0.739
Na               5.402e+00
   Na+                    5.401e+00   9.442e+00     0.732     0.975     0.243
   NaSO4-                 5.210e-04   2.855e-03    -3.283    -2.544     0.739
   NaHCO3                 1.924e-04   1.025e-03    -3.716    -2.989     0.727
   NaCO3-                 1.501e-07   8.224e-07    -6.824    -6.085     0.739
   NaOH                   4.744e-09   2.528e-08    -8.324    -7.597     0.727
O(0)             8.211e-05
   O2                     4.106e-05   2.188e-04    -4.387    -3.660     0.727
S(-2)            0.000e+00
   H2S                    0.000e+00   0.000e+00  -140.621  -139.894     0.727
   HS-                    0.000e+00   0.000e+00  -140.788  -141.123    -0.335
   S-2                    0.000e+00   0.000e+00  -147.315  -148.327    -1.012
S(6)             4.725e-03
   CaSO4                  1.600e-03   8.525e-03    -2.796    -2.069     0.727
   MgSO4                  1.392e-03   7.419e-03    -2.856    -2.130     0.727
   SO4-2                  1.212e-03   6.033e-05    -2.917    -4.219    -1.303
   NaSO4-                 5.210e-04   2.855e-03    -3.283    -2.544     0.739
   CaHSO4+                1.764e-08   9.668e-08    -7.753    -7.015     0.739
   HSO4-                  2.072e-09   1.136e-08    -8.684    -7.945     0.739

------------------------------Saturation indices-------------------------------

	Phase               SI log IAP  log KT

	Anhydrite        -0.01   -4.37   -4.36  CaSO4
	Aragonite        -0.14   -8.48   -8.34  CaCO3
	Calcite              0   -8.48   -8.48  CaCO3
	CH4(g)         -140.77 -143.63   -2.86  CH4
	CO2(g)           -1.50   -2.97   -1.47  CO2
	Dolomite             0  -17.09  -17.09  CaMg(CO3)2
	Gypsum               0   -4.58   -4.58  CaSO4:2H2O
	H2(g)           -41.32  -44.47   -3.15  H2
	H2O(g)           -1.62   -0.11    1.51  H2O
	H2S(g)         -138.90 -139.89   -1.00  H2S
	Halite           -0.01    1.57    1.58  NaCl
	O2(g)            -0.70   -3.66   -2.96  O2
	Sulfur         -103.46  -98.58    4.88  S

------------------
End of simulation.
------------------

------------------------------------
Reading input data for simulation 5.
------------------------------------

	EXCHANGE 2
	        equilibrate with solution 2
	        X       0.5
	SURFACE 2
	        equilibrate solution 2
	        SurfOH          0.14     600.    30.
	END
-------------------------------------------------------
Beginning of initial exchange-composition calculations.
-------------------------------------------------------

Exchange 2.	

X                5.000e-01 mol

	                               Equiv-    Equivalent      Log 
	Species             Moles      alents      Fraction     Gamma

	NaX               4.507e-01   4.507e-01   9.014e-01     0.243
	CaX2              2.024e-02   4.048e-02   8.096e-02     0.187
	MgX2              4.418e-03   8.836e-03   1.767e-02     0.517

------------------------------------------------------
Beginning of initial surface-composition calculations.
------------------------------------------------------

Surface 2.	

Surf          
	  8.470e-02  Surface charge, eq
	  4.541e-01  sigma, C/m**2
	  5.950e-02  psi, V
	 -2.316e+00  -F*psi/RT
	  9.866e-02  exp(-F*psi/RT)
	  6.000e+02  specific area, m**2/g
	  1.800e+04  m**2 for   3.000e+01 g


Surf          
	  1.400e-01  moles
	                                   Mole                     Log
	Species               Moles    Fraction    Molality    Molality

	SurfOH2+          1.039e-01       0.742   1.039e-01      -0.984
	SurfOH            2.789e-02       0.199   2.789e-02      -1.555
	SurfOHAsO4-3      5.593e-03       0.040   5.593e-03      -2.252
	SurfHAsO4-        2.213e-03       0.016   2.213e-03      -2.655
	SurfH2AsO4        2.668e-04       0.002   2.668e-04      -3.574
	SurfO-            1.715e-04       0.001   1.715e-04      -3.766

------------------
End of simulation.
------------------

------------------------------------
Reading input data for simulation 6.
------------------------------------

	SELECTED_OUTPUT
	        file print_check_transient.dummy.sel
	        reset false
	        ph
	USER_PUNCH
	heading        Ca      Mg      Na      Cl      C(4)    SO4     As
	10 PUNCH TOT("Ca")*1e3*40.08
	20 PUNCH TOT("Mg")*1e3*24.312
	30 PUNCH TOT("Na")*1e3*23.
	40 PUNCH TOT("Cl")*1e3*35.45
	50 PUNCH TOT("C(4)")*1e3*61.   # as HCO3-
	60 PUNCH TOT("S(6)")*1e3*96.   # as SO4
	70 PUNCH TOT("As")*1e6*74.296  # ug/L
	END
------------------
End of simulation.
------------------

------------------------------------
Reading input data for simulation 7.
------------------------------------

List of Components:
	1	H
	2	O
	3	As
	4	C
	5	Ca
	6	Cl
	7	Mg
	8	Na
	9	S
	10	Charge
List of master species:
	1	As
	2	C(-4)
	3	C(4)
	4	Ca
	5	Cl
	6	Mg
	7	Na
	8	S(-2)
	9	S(6)
Time 15000. Cell 1: x=              0	y=              0	z=              0
Using solution 1.
Using exchange 1
Using surface 1.
Using pure phase assemblage 1.

-------------------------------Phase assemblage--------------------------------

                                                      Moles in assemblage
Phase                  SI log IAP  log KT      Initial       Final       Delta

Calcite                 0   -8.48   -8.48    1.014e-01   1.019e-01   4.404e-04
Dolomite                0  -17.09  -17.09    1.599e+00   1.599e+00  -1.650e-04

------------------------------Surface composition------------------------------

Surf          
	  8.532e-02  Surface charge, eq
	  4.574e-01  sigma, C/m**2
	  6.134e-02  psi, V
	 -2.388e+00  -F*psi/RT
	  9.185e-02  exp(-F*psi/RT)
	  6.000e+02  specific area, m**2/g
	  1.800e+04  m**2 for   3.000e+01 g


Surf          
	  1.400e-01  moles
	                                   Mole                     Log
	Species               Moles    Fraction    Molality    Molality

	SurfOH2+          1.044e-01       0.745   1.044e-01      -0.981
	SurfOH            2.739e-02       0.196   2.739e-02      -1.562
	SurfOHAsO4-3      5.542e-03       0.040   5.542e-03      -2.256
	SurfHAsO4-        2.253e-03       0.016   2.253e-03      -2.647
	SurfH2AsO4        2.778e-04       0.002   2.778e-04      -3.556
	SurfO-            1.647e-04       0.001   1.647e-04      -3.783

-----------------------------Exchange composition------------------------------

X                5.000e-01 mol

	                               Equiv-    Equivalent      Log 
	Species             Moles      alents      Fraction     Gamma

	NaX               4.484e-01   4.484e-01   8.968e-01     0.207
	CaX2              2.101e-02   4.203e-02   8.406e-02     0.110
	MgX2              4.788e-03   9.576e-03   1.915e-02     0.422

-----------------------------Solution composition------------------------------

	Elements           Molality       Moles

	As                1.164e-08   1.164e-08
	C                 4.678e-03   4.678e-03
	Ca                4.254e-01   4.254e-01
	Cl                6.184e+00   6.184e+00
	Mg                1.534e-01   1.534e-01
	Na                5.040e+00   5.040e+00
	S                 4.416e-03   4.416e-03

----------------------------Description of solution----------------------------

                                       pH  =   5.672      Charge balance
                                       pe  =  14.997      Adjusted to redox equilibrium
                        Activity of water  =   0.799
                           Ionic strength  =   6.762e+00
                       Mass of water (kg)  =   1.000e+00
                 Total alkalinity (eq/kg)  =   4.328e-03
                       Total CO2 (mol/kg)  =   4.678e-03
                      Temperature (deg C)  =  25.000
                  Electrical balance (eq)  =   5.900e-04
 Percent error, 100*(Cat-|An|)/(Cat+|An|)  =      0
                               Iterations  =   4
                                  Total H  = 1.110169e+02
                                  Total O  = 5.553773e+01

----------------------------Distribution of species----------------------------

                                                   Log       Log         Log 
   Species                 Molality    Activity  Molality  Activity     Gamma

   H+                     3.022e-06   2.127e-06    -5.520    -5.672    -0.153
   OH-                    8.081e-09   3.762e-09    -8.093    -8.425    -0.332
   H2O                    5.551e+01   7.993e-01     1.744    -0.097         0
As               1.164e-08
   H2AsO4-                1.163e-08   5.382e-08    -7.934    -7.269     0.665
   HAsO4-2                6.052e-12   2.774e-09   -11.218    -8.557     2.661
   H3AsO4                 4.193e-12   1.989e-11   -11.377   -10.701     0.676
   AsO4-3                 4.242e-21   4.124e-15   -20.372   -14.385     5.988
C(-4)            0.000e+00
   CH4                    0.000e+00   0.000e+00  -144.227  -143.550     0.676
C(4)             4.678e-03
   CaHCO3+                3.301e-03   1.917e-03    -2.481    -2.717    -0.236
   HCO3-                  4.772e-04   2.771e-04    -3.321    -3.557    -0.236
   CO2                    3.495e-04   1.658e-03    -3.457    -2.780     0.676
   MgHCO3+                2.815e-04   1.302e-03    -3.551    -2.885     0.665
   NaHCO3                 2.667e-04   1.265e-03    -3.574    -2.898     0.676
   CaCO3                  1.173e-06   5.565e-06    -5.931    -5.255     0.676
   MgCO3                  4.935e-07   2.341e-06    -6.307    -5.631     0.676
   NaCO3-                 1.996e-07   9.237e-07    -6.700    -6.034     0.665
   CO3-2                  5.374e-08   6.109e-09    -7.270    -8.214    -0.944
Ca               4.254e-01
   Ca+2                   4.207e-01   5.422e-01    -0.376    -0.266     0.110
   CaHCO3+                3.301e-03   1.917e-03    -2.481    -2.717    -0.236
   CaSO4                  1.432e-03   6.794e-03    -2.844    -2.168     0.676
   CaCO3                  1.173e-06   5.565e-06    -5.931    -5.255     0.676
   CaHSO4+                1.830e-08   8.466e-08    -7.738    -7.072     0.665
   CaOH+                  7.308e-09   3.381e-08    -8.136    -7.471     0.665
Cl               6.184e+00
   Cl-                    6.184e+00   3.636e+00     0.791     0.561    -0.231
H(0)             0.000e+00
   H2                     0.000e+00   0.000e+00   -45.165   -44.489     0.676
Mg               1.534e-01
   Mg+2                   1.519e-01   4.016e-01    -0.818    -0.396     0.422
   MgSO4                  1.246e-03   5.912e-03    -2.904    -2.228     0.676
   MgHCO3+                2.815e-04   1.302e-03    -3.551    -2.885     0.665
   MgCO3                  4.935e-07   2.341e-06    -6.307    -5.631     0.676
   MgOH+                  1.184e-07   5.480e-07    -6.927    -6.261     0.665
Na               5.040e+00
   Na+                    5.040e+00   8.120e+00     0.702     0.910     0.207
   NaSO4-                 5.523e-04   2.555e-03    -3.258    -2.593     0.665
   NaHCO3                 2.667e-04   1.265e-03    -3.574    -2.898     0.676
   NaCO3-                 1.996e-07   9.237e-07    -6.700    -6.034     0.665
   NaOH                   4.249e-09   2.016e-08    -8.372    -7.696     0.676
O(0)             1.066e-04
   O2                     5.329e-05   2.528e-04    -4.273    -3.597     0.676
S(-2)            0.000e+00
   H2S                    0.000e+00   0.000e+00  -140.597  -139.920     0.676
   HS-                    0.000e+00   0.000e+00  -140.858  -141.190    -0.332
   S-2                    0.000e+00   0.000e+00  -147.430  -148.436    -1.005
S(6)             4.416e-03
   CaSO4                  1.432e-03   6.794e-03    -2.844    -2.168     0.676
   MgSO4                  1.246e-03   5.912e-03    -2.904    -2.228     0.676
   SO4-2                  1.185e-03   6.279e-05    -2.926    -4.202    -1.276
   NaSO4-                 5.523e-04   2.555e-03    -3.258    -2.593     0.665
   CaHSO4+                1.830e-08   8.466e-08    -7.738    -7.072     0.665
   HSO4-                  2.807e-09   1.299e-08    -8.552    -7.886     0.665

------------------------------Saturation indices-------------------------------

	Phase               SI log IAP  log KT

	Anhydrite        -0.11   -4.47   -4.36  CaSO4
	Aragonite        -0.14   -8.48   -8.34  CaCO3
	Calcite              0   -8.48   -8.48  CaCO3
	CH4(g)         -140.69 -143.55   -2.86  CH4
	CO2(g)           -1.31   -2.78   -1.47  CO2
	Dolomite             0  -17.09  -17.09  CaMg(CO3)2
	Gypsum           -0.08   -4.66   -4.58  CaSO4:2H2O
	H2(g)           -41.34  -44.49   -3.15  H2
	H2O(g)           -1.61   -0.10    1.51  H2O
	H2S(g)         -138.92 -139.92   -1.00  H2S
	Halite           -0.11    1.47    1.58  NaCl
	O2(g)            -0.64   -3.60   -2.96  O2
	Sulfur         -103.46  -98.58    4.88  S

Time 15000. Cell 3: x=          12000	y=              0	z=              0
Using solution 3.
Using exchange 3
Using surface 3.
Using pure phase assemblage 3.

-------------------------------Phase assemblage--------------------------------

                                                      Moles in assemblage
Phase                  SI log IAP  log KT      Initial       Final       Delta

Calcite                 0   -8.48   -8.48    1.220e-01   1.234e-01   1.420e-03
Dolomite                0  -17.09  -17.09    1.588e+00   1.586e+00  -1.395e-03

------------------------------Surface composition------------------------------

Surf          
	  7.881e-02  Surface charge, eq
	  4.225e-01  sigma, C/m**2
	  7.417e-02  psi, V
	 -2.887e+00  -F*psi/RT
	  5.574e-02  exp(-F*psi/RT)
	  6.000e+02  specific area, m**2/g
	  1.800e+04  m**2 for   3.000e+01 g


Surf          
	  1.400e-01  moles
	                                   Mole                     Log
	Species               Moles    Fraction    Molality    Molality

	SurfOH2+          9.972e-02       0.712   9.970e-02      -1.001
	SurfOH            3.197e-02       0.228   3.197e-02      -1.495
	SurfOHAsO4-3      6.379e-03       0.046   6.378e-03      -2.195
	SurfHAsO4-        1.538e-03       0.011   1.538e-03      -2.813
	SurfO-            2.349e-04       0.002   2.348e-04      -3.629
	SurfH2AsO4        1.553e-04       0.001   1.552e-04      -3.809

-----------------------------Exchange composition------------------------------

X                5.000e-01 mol

	                               Equiv-    Equivalent      Log 
	Species             Moles      alents      Fraction     Gamma

	NaX               4.183e-01   4.183e-01   8.366e-01    -0.030
	CaX2              3.118e-02   6.236e-02   1.247e-01    -0.393
	MgX2              9.678e-03   1.936e-02   3.871e-02    -0.215

-----------------------------Solution composition------------------------------

	Elements           Molality       Moles

	As                1.486e-08   1.486e-08
	C                 2.190e-02   2.191e-02
	Ca                1.773e-01   1.774e-01
	Cl                2.960e+00   2.960e+00
	Mg                8.650e-02   8.651e-02
	Na                2.474e+00   2.475e+00
	S                 2.236e-03   2.236e-03

----------------------------Description of solution----------------------------

                                       pH  =   5.542      Charge balance
                                       pe  =  15.117      Adjusted to redox equilibrium
                        Activity of water  =   0.903
                           Ionic strength  =   3.238e+00
                       Mass of water (kg)  =   1.000e+00
                 Total alkalinity (eq/kg)  =   1.207e-02
                       Total CO2 (mol/kg)  =   2.190e-02
                      Temperature (deg C)  =  25.000
                  Electrical balance (eq)  =   2.535e-02
 Percent error, 100*(Cat-|An|)/(Cat+|An|)  =   0.43
                               Iterations  =   4
                                  Total H  = 1.110393e+02
                                  Total O  = 5.557874e+01

----------------------------Distribution of species----------------------------

                                                   Log       Log         Log 
   Species                 Molality    Activity  Molality  Activity     Gamma

   H+                     4.007e-06   2.869e-06    -5.397    -5.542    -0.145
   OH-                    6.267e-09   3.150e-09    -8.203    -8.502    -0.299
   H2O                    5.551e+01   9.029e-01     1.744    -0.044         0
As               1.486e-08
   H2AsO4-                1.468e-08   2.158e-08    -7.833    -7.666     0.167
   HAsO4-2                1.766e-10   8.248e-10    -9.753    -9.084     0.669
   H3AsO4                 5.106e-12   1.076e-11   -11.292   -10.968     0.324
   AsO4-3                 2.833e-17   9.090e-16   -16.548   -15.041     1.506
C(-4)            0.000e+00
   CH4                    0.000e+00   0.000e+00  -142.802  -142.479     0.324
C(4)             2.190e-02
   CO2                    9.837e-03   2.073e-02    -2.007    -1.683     0.324
   HCO3-                  4.801e-03   2.902e-03    -2.319    -2.537    -0.219
   CaHCO3+                4.279e-03   2.586e-03    -2.369    -2.587    -0.219
   NaHCO3                 1.787e-03   3.767e-03    -2.748    -2.424     0.324
   MgHCO3+                1.195e-03   1.757e-03    -2.923    -2.755     0.167
   CaCO3                  2.640e-06   5.565e-06    -5.578    -5.255     0.324
   NaCO3-                 1.387e-06   2.039e-06    -5.858    -5.691     0.167
   MgCO3                  1.111e-06   2.341e-06    -5.954    -5.631     0.324
   CO3-2                  3.556e-07   4.743e-08    -6.449    -7.324    -0.875
Ca               1.773e-01
   Ca+2                   1.726e-01   6.985e-02    -0.763    -1.156    -0.393
   CaHCO3+                4.279e-03   2.586e-03    -2.369    -2.587    -0.219
   CaSO4                  4.674e-04   9.852e-04    -3.330    -3.006     0.324
   CaCO3                  2.640e-06   5.565e-06    -5.578    -5.255     0.324
   CaHSO4+                1.126e-08   1.656e-08    -7.948    -7.781     0.167
   CaOH+                  2.481e-09   3.648e-09    -8.605    -8.438     0.167
Cl               2.960e+00
   Cl-                    2.960e+00   1.664e+00     0.471     0.221    -0.250
H(0)             0.000e+00
   H2                     0.000e+00   0.000e+00   -44.792   -44.469     0.324
Mg               8.650e-02
   Mg+2                   8.490e-02   5.174e-02    -1.071    -1.286    -0.215
   MgHCO3+                1.195e-03   1.757e-03    -2.923    -2.755     0.167
   MgSO4                  4.068e-04   8.574e-04    -3.391    -3.067     0.324
   MgCO3                  1.111e-06   2.341e-06    -5.954    -5.631     0.324
   MgOH+                  4.021e-08   5.911e-08    -7.396    -7.228     0.167
Na               2.474e+00
   Na+                    2.472e+00   2.309e+00     0.393     0.363    -0.030
   NaHCO3                 1.787e-03   3.767e-03    -2.748    -2.424     0.324
   NaSO4-                 5.564e-04   8.180e-04    -3.255    -3.087     0.167
   NaCO3-                 1.387e-06   2.039e-06    -5.858    -5.691     0.167
   NaOH                   2.277e-09   4.800e-09    -8.643    -8.319     0.324
O(0)             2.790e-04
   O2                     1.395e-04   2.941e-04    -3.855    -3.532     0.324
S(-2)            0.000e+00
   H2S                    0.000e+00   0.000e+00  -140.064  -139.740     0.324
   HS-                    0.000e+00   0.000e+00  -140.841  -141.140    -0.299
   S-2                    0.000e+00   0.000e+00  -147.588  -148.516    -0.927
S(6)             2.236e-03
   SO4-2                  8.055e-04   7.069e-05    -3.094    -4.151    -1.057
   NaSO4-                 5.564e-04   8.180e-04    -3.255    -3.087     0.167
   CaSO4                  4.674e-04   9.852e-04    -3.330    -3.006     0.324
   MgSO4                  4.068e-04   8.574e-04    -3.391    -3.067     0.324
   HSO4-                  1.341e-08   1.972e-08    -7.872    -7.705     0.167
   CaHSO4+                1.126e-08   1.656e-08    -7.948    -7.781     0.167

------------------------------Saturation indices-------------------------------

	Phase               SI log IAP  log KT

	Anhydrite        -0.95   -5.31   -4.36  CaSO4
	Aragonite        -0.14   -8.48   -8.34  CaCO3
	Calcite              0   -8.48   -8.48  CaCO3
	CH4(g)         -139.62 -142.48   -2.86  CH4
	CO2(g)           -0.22   -1.68   -1.47  CO2
	Dolomite             0  -17.09  -17.09  CaMg(CO3)2
	Gypsum           -0.81   -5.40   -4.58  CaSO4:2H2O
	H2(g)           -41.32  -44.47   -3.15  H2
	H2O(g)           -1.55   -0.04    1.51  H2O
	H2S(g)         -138.74 -139.74   -1.00  H2S
	Halite           -1.00    0.58    1.58  NaCl
	O2(g)            -0.57   -3.53   -2.96  O2
	Sulfur         -103.30  -98.42    4.88  S

Time 15000. Cell 5: x=          24000	y=              0	z=              0
Using solution 5.
Using exchange 5
Using surface 5.
Using pure phase assemblage 5.

-------------------------------Phase assemblage--------------------------------

                                                      Moles in assemblage
Phase                  SI log IAP  log KT      Initial       Final       Delta

Calcite                 0   -8.48   -8.48    1.398e-01   1.392e-01  -5.549e-04
Dolomite                0  -17.09  -17.09    1.563e+00   1.562e+00  -9.592e-04

------------------------------Surface composition------------------------------

Surf          
	  2.678e-02  Surface charge, eq
	  1.436e-01  sigma, C/m**2
	  6.911e-02  psi, V
	 -2.690e+00  -F*psi/RT
	  6.788e-02  exp(-F*psi/RT)
	  6.000e+02  specific area, m**2/g
	  1.800e+04  m**2 for   3.000e+01 g


Surf          
	  1.400e-01  moles
	                                   Mole                     Log
	Species               Moles    Fraction    Molality    Molality

	SurfOH            7.613e-02       0.544   7.612e-02      -1.119
	SurfOH2+          5.331e-02       0.381   5.330e-02      -1.273
	SurfOHAsO4-3      7.982e-03       0.057   7.981e-03      -2.098
	SurfO-            2.491e-03       0.018   2.490e-03      -2.604
	SurfHAsO4-        8.892e-05       0.001   8.890e-05      -4.051
	SurfH2AsO4        2.015e-06           0   2.014e-06      -5.696

-----------------------------Exchange composition------------------------------

X                5.000e-01 mol

	                               Equiv-    Equivalent      Log 
	Species             Moles      alents      Fraction     Gamma

	NaX               3.174e-01   3.174e-01   6.347e-01    -0.148
	CaX2              6.443e-02   1.289e-01   2.577e-01    -0.579
	MgX2              2.688e-02   5.376e-02   1.075e-01    -0.530

-----------------------------Solution composition------------------------------

	Elements           Molality       Moles

	As                1.453e-09   1.453e-09
	C                 2.458e-02   2.459e-02
	Ca                1.685e-02   1.685e-02
	Cl                4.138e-01   4.138e-01
	Mg                1.114e-02   1.114e-02
	Na                4.000e-01   4.001e-01
	S                 5.147e-04   5.147e-04

----------------------------Description of solution----------------------------

                                       pH  =   6.277      Charge balance
                                       pe  =  14.338      Adjusted to redox equilibrium
                        Activity of water  =   0.985
                           Ionic strength  =   4.673e-01
                       Mass of water (kg)  =   1.000e+00
                 Total alkalinity (eq/kg)  =   1.506e-02
                       Total CO2 (mol/kg)  =   2.458e-02
                      Temperature (deg C)  =  25.000
                  Electrical balance (eq)  =   2.618e-02
 Percent error, 100*(Cat-|An|)/(Cat+|An|)  =   2.97
                               Iterations  =   4
                                  Total H  = 1.110435e+02
                                  Total O  = 5.558095e+01

----------------------------Distribution of species----------------------------

                                                   Log       Log         Log 
   Species                 Molality    Activity  Molality  Activity     Gamma

   H+                     6.898e-07   5.290e-07    -6.161    -6.277    -0.115
   OH-                    2.921e-08   1.865e-08    -7.534    -7.729    -0.195
   H2O                    5.551e+01   9.853e-01     1.744    -0.006         0
As               1.453e-09
   H2AsO4-                9.510e-10   6.963e-10    -9.022    -9.157    -0.135
   HAsO4-2                5.022e-10   1.443e-10    -9.299    -9.841    -0.542
   H3AsO4                 5.748e-14   6.401e-14   -13.241   -13.194     0.047
   AsO4-3                 1.427e-14   8.627e-16   -13.846   -15.064    -1.219
C(-4)            0.000e+00
   CH4                    0.000e+00   0.000e+00  -142.531  -142.484     0.047
C(4)             2.458e-02
   HCO3-                  1.264e-02   8.799e-03    -1.898    -2.056    -0.157
   CO2                    9.538e-03   1.062e-02    -2.021    -1.974     0.047
   NaHCO3                 1.259e-03   1.402e-03    -2.900    -2.853     0.047
   CaHCO3+                6.850e-04   4.767e-04    -3.164    -3.322    -0.157
   MgHCO3+                4.423e-04   3.239e-04    -3.354    -3.490    -0.135
   NaCO3-                 5.620e-06   4.115e-06    -5.250    -5.386    -0.135
   CaCO3                  4.997e-06   5.565e-06    -5.301    -5.255     0.047
   CO3-2                  3.325e-06   7.801e-07    -5.478    -6.108    -0.630
   MgCO3                  2.103e-06   2.341e-06    -5.677    -5.631     0.047
Ca               1.685e-02
   Ca+2                   1.611e-02   4.247e-03    -1.793    -2.372    -0.579
   CaHCO3+                6.850e-04   4.767e-04    -3.164    -3.322    -0.157
   CaSO4                  4.839e-05   5.388e-05    -4.315    -4.269     0.047
   CaCO3                  4.997e-06   5.565e-06    -5.301    -5.255     0.047
   CaOH+                  1.793e-09   1.313e-09    -8.746    -8.882    -0.135
   CaHSO4+                2.281e-10   1.670e-10    -9.642    -9.777    -0.135
Cl               4.138e-01
   Cl-                    4.138e-01   2.684e-01    -0.383    -0.571    -0.188
H(0)             0.000e+00
   H2                     0.000e+00   0.000e+00   -44.425   -44.378     0.047
Mg               1.114e-02
   Mg+2                   1.065e-02   3.146e-03    -1.972    -2.502    -0.530
   MgHCO3+                4.423e-04   3.239e-04    -3.354    -3.490    -0.135
   MgSO4                  4.211e-05   4.689e-05    -4.376    -4.329     0.047
   MgCO3                  2.103e-06   2.341e-06    -5.677    -5.631     0.047
   MgOH+                  2.905e-08   2.127e-08    -7.537    -7.672    -0.135
Na               4.000e-01
   Na+                    3.987e-01   2.833e-01    -0.399    -0.548    -0.148
   NaHCO3                 1.259e-03   1.402e-03    -2.900    -2.853     0.047
   NaSO4-                 1.233e-04   9.028e-05    -3.909    -4.044    -0.135
   NaCO3-                 5.620e-06   4.115e-06    -5.250    -5.386    -0.135
   NaOH                   3.130e-09   3.486e-09    -8.504    -8.458     0.047
O(0)             4.153e-04
   O2                     2.076e-04   2.312e-04    -3.683    -3.636     0.047
S(-2)            0.000e+00
   H2S                    0.000e+00   0.000e+00  -141.093  -141.046     0.047
   HS-                    0.000e+00   0.000e+00  -141.516  -141.711    -0.195
   S-2                    0.000e+00   0.000e+00  -147.696  -148.353    -0.656
S(6)             5.147e-04
   SO4-2                  3.009e-04   6.360e-05    -3.522    -4.197    -0.675
   NaSO4-                 1.233e-04   9.028e-05    -3.909    -4.044    -0.135
   CaSO4                  4.839e-05   5.388e-05    -4.315    -4.269     0.047
   MgSO4                  4.211e-05   4.689e-05    -4.376    -4.329     0.047
   HSO4-                  4.467e-09   3.271e-09    -8.350    -8.485    -0.135
   CaHSO4+                2.281e-10   1.670e-10    -9.642    -9.777    -0.135

------------------------------Saturation indices-------------------------------

	Phase               SI log IAP  log KT

	Anhydrite        -2.21   -6.57   -4.36  CaSO4
	Aragonite        -0.14   -8.48   -8.34  CaCO3
	Calcite              0   -8.48   -8.48  CaCO3
	CH4(g)         -139.62 -142.48   -2.86  CH4
	CO2(g)           -0.51   -1.97   -1.47  CO2
	Dolomite             0  -17.09  -17.09  CaMg(CO3)2
	Gypsum           -2.00   -6.58   -4.58  CaSO4:2H2O
	H2(g)           -41.23  -44.38   -3.15  H2
	H2O(g)           -1.52   -0.01    1.51  H2O
	H2S(g)         -140.05 -141.05   -1.00  H2S
	Halite           -2.70   -1.12    1.58  NaCl
	O2(g)            -0.68   -3.64   -2.96  O2
	Sulfur         -104.70  -99.82    4.88  S

Time 15000. Cell 7: x=          36000	y=              0	z=              0
Using solution 7.
Using exchange 7
Using surface 7.
Using pure phase assemblage 7.

-------------------------------Phase assemblage--------------------------------

                                                      Moles in assemblage
Phase                  SI log IAP  log KT      Initial       Final       Delta

Calcite                 0   -8.48   -8.48    1.367e-01   1.362e-01  -4.832e-04
Dolomite                0  -17.09  -17.09    1.552e+00   1.552e+00  -4.091e-04

------------------------------Surface composition------------------------------

Surf          
	  1.166e-03  Surface charge, eq
	  6.251e-03  sigma, C/m**2
	  1.329e-02  psi, V
	 -5.174e-01  -F*psi/RT
	  5.961e-01  exp(-F*psi/RT)
	  6.000e+02  specific area, m**2/g
	  1.800e+04  m**2 for   3.000e+01 g


Surf          
	  1.400e-01  moles
	                                   Mole                     Log
	Species               Moles    Fraction    Molality    Molality

	SurfOH            9.386e-02       0.670   9.386e-02      -1.028
	SurfOH2+          3.171e-02       0.226   3.171e-02      -1.499
	SurfOHAsO4-3      8.052e-03       0.058   8.052e-03      -2.094
	SurfO-            6.364e-03       0.045   6.364e-03      -2.196
	SurfHAsO4-        2.060e-05           0   2.060e-05      -4.686
	SurfH2AsO4        2.252e-07           0   2.252e-07      -6.647

-----------------------------Exchange composition------------------------------

X                5.000e-01 mol

	                               Equiv-    Equivalent      Log 
	Species             Moles      alents      Fraction     Gamma

	NaX               2.476e-01   2.476e-01   4.951e-01    -0.079
	CaX2              8.658e-02   1.732e-01   3.463e-01    -0.304
	MgX2              3.963e-02   7.926e-02   1.585e-01    -0.295

-----------------------------Solution composition------------------------------

	Elements           Molality       Moles

	As                1.056e-08   1.056e-08
	C                 1.345e-02   1.345e-02
	Ca                4.363e-04   4.363e-04
	Cl                2.452e-02   2.452e-02
	Mg                3.142e-04   3.142e-04
	Na                4.226e-02   4.226e-02
	S                 2.516e-04   2.516e-04

----------------------------Description of solution----------------------------

                                       pH  =   7.537      Charge balance
                                       pe  =  13.069      Adjusted to redox equilibrium
                        Activity of water  =   0.999
                           Ionic strength  =   4.142e-02
                       Mass of water (kg)  =   1.000e+00
                 Total alkalinity (eq/kg)  =   1.283e-02
                       Total CO2 (mol/kg)  =   1.345e-02
                      Temperature (deg C)  =  25.000
                  Electrical balance (eq)  =   5.907e-03
 Percent error, 100*(Cat-|An|)/(Cat+|An|)  =   7.30
                               Iterations  =   4
                                  Total H  = 1.110243e+02
                                  Total O  = 5.554691e+01

----------------------------Distribution of species----------------------------

                                                   Log       Log         Log 
   Species                 Molality    Activity  Molality  Activity     Gamma

   OH-                    4.173e-07   3.439e-07    -6.380    -6.464    -0.084
   H+                     3.374e-08   2.907e-08    -7.472    -7.537    -0.065
   H2O                    5.551e+01   9.986e-01     1.744    -0.001         0
As               1.056e-08
   HAsO4-2                9.160e-09   4.393e-09    -8.038    -8.357    -0.319
   H2AsO4-                1.399e-09   1.164e-09    -8.854    -8.934    -0.080
   AsO4-3                 2.497e-12   4.779e-13   -11.603   -12.321    -0.718
   H3AsO4                 5.827e-15   5.882e-15   -14.235   -14.230     0.004
C(-4)            0.000e+00
   CH4                    0.000e+00   0.000e+00  -143.625  -143.621     0.004
C(4)             1.345e-02
   HCO3-                  1.246e-02   1.046e-02    -1.904    -1.981    -0.076
   CO2                    6.779e-04   6.844e-04    -3.169    -3.165     0.004
   NaHCO3                 2.042e-04   2.062e-04    -3.690    -3.686     0.004
   CO3-2                  3.403e-05   1.687e-05    -4.468    -4.773    -0.305
   CaHCO3+                3.122e-05   2.620e-05    -4.506    -4.582    -0.076
   MgHCO3+                2.139e-05   1.780e-05    -4.670    -4.750    -0.080
   NaCO3-                 1.323e-05   1.101e-05    -4.878    -4.958    -0.080
   CaCO3                  5.512e-06   5.565e-06    -5.259    -5.255     0.004
   MgCO3                  2.319e-06   2.341e-06    -5.635    -5.631     0.004
Ca               4.363e-04
   Ca+2                   3.954e-04   1.963e-04    -3.403    -3.707    -0.304
   CaHCO3+                3.122e-05   2.620e-05    -4.506    -4.582    -0.076
   CaCO3                  5.512e-06   5.565e-06    -5.259    -5.255     0.004
   CaSO4                  4.177e-06   4.217e-06    -5.379    -5.375     0.004
   CaOH+                  1.345e-09   1.119e-09    -8.871    -8.951    -0.080
   CaHSO4+                8.630e-13   7.181e-13   -12.064   -12.144    -0.080
Cl               2.452e-02
   Cl-                    2.452e-02   2.024e-02    -1.610    -1.694    -0.083
H(0)             0.000e+00
   H2                     0.000e+00   0.000e+00   -44.366   -44.362     0.004
Mg               3.142e-04
   Mg+2                   2.868e-04   1.454e-04    -3.542    -3.837    -0.295
   MgHCO3+                2.139e-05   1.780e-05    -4.670    -4.750    -0.080
   MgSO4                  3.635e-06   3.670e-06    -5.439    -5.435     0.004
   MgCO3                  2.319e-06   2.341e-06    -5.635    -5.631     0.004
   MgOH+                  2.180e-08   1.814e-08    -7.662    -7.741    -0.080
Na               4.226e-02
   Na+                    4.202e-02   3.506e-02    -1.377    -1.455    -0.079
   NaHCO3                 2.042e-04   2.062e-04    -3.690    -3.686     0.004
   NaSO4-                 2.273e-05   1.891e-05    -4.643    -4.723    -0.080
   NaCO3-                 1.323e-05   1.101e-05    -4.878    -4.958    -0.080
   NaOH                   7.882e-09   7.957e-09    -8.103    -8.099     0.004
O(0)             4.362e-04
   O2                     2.181e-04   2.202e-04    -3.661    -3.657     0.004
S(-2)            0.000e+00
   HS-                    0.000e+00   0.000e+00  -142.616  -142.700    -0.084
   H2S                    0.000e+00   0.000e+00  -143.299  -143.295     0.004
   S-2                    0.000e+00   0.000e+00  -147.771  -148.082    -0.311
S(6)             2.516e-04
   SO4-2                  2.210e-04   1.076e-04    -3.656    -3.968    -0.312
   NaSO4-                 2.273e-05   1.891e-05    -4.643    -4.723    -0.080
   CaSO4                  4.177e-06   4.217e-06    -5.379    -5.375     0.004
   MgSO4                  3.635e-06   3.670e-06    -5.439    -5.435     0.004
   HSO4-                  3.656e-10   3.042e-10    -9.437    -9.517    -0.080
   CaHSO4+                8.630e-13   7.181e-13   -12.064   -12.144    -0.080

------------------------------Saturation indices-------------------------------

	Phase               SI log IAP  log KT

	Anhydrite        -3.31   -7.67   -4.36  CaSO4
	Aragonite        -0.14   -8.48   -8.34  CaCO3
	Calcite              0   -8.48   -8.48  CaCO3
	CH4(g)         -140.76 -143.62   -2.86  CH4
	CO2(g)           -1.70   -3.16   -1.47  CO2
	Dolomite             0  -17.09  -17.09  CaMg(CO3)2
	Gypsum           -3.10   -7.68   -4.58  CaSO4:2H2O
	H2(g)           -41.21  -44.36   -3.15  H2
	H2O(g)           -1.51       0    1.51  H2O
	H2S(g)         -142.30 -143.30   -1.00  H2S
	Halite           -4.73   -3.15    1.58  NaCl
	O2(g)            -0.70   -3.66   -2.96  O2
	Sulfur         -106.97 -102.08    4.88  S

Time 15000. Cell 9: x=          48000	y=              0	z=              0
Using solution 9.
Using exchange 9
Using surface 9.
Using pure phase assemblage 9.

-------------------------------Phase assemblage--------------------------------

                                                      Moles in assemblage
Phase                  SI log IAP  log KT      Initial       Final       Delta

Calcite                 0   -8.48   -8.48    1.348e-01   1.343e-01  -4.823e-04
Dolomite                0  -17.09  -17.09    1.550e+00   1.550e+00  -1.340e-04

------------------------------Surface composition------------------------------

Surf          
	 -1.775e-03  Surface charge, eq
	 -9.515e-03  sigma, C/m**2
	 -3.287e-02  psi, V
	  1.279e+00  -F*psi/RT
	  3.594e+00  exp(-F*psi/RT)
	  6.000e+02  specific area, m**2/g
	  1.800e+04  m**2 for   3.000e+01 g


Surf          
	  1.400e-01  moles
	                                   Mole                     Log
	Species               Moles    Fraction    Molality    Molality

	SurfOH            9.538e-02       0.681   9.538e-02      -1.021
	SurfOH2+          2.948e-02       0.211   2.948e-02      -1.530
	SurfOHAsO4-3      8.055e-03       0.058   8.056e-03      -2.094
	SurfO-            7.070e-03       0.050   7.070e-03      -2.151
	SurfHAsO4-        1.723e-05           0   1.723e-05      -4.764
	SurfH2AsO4        1.724e-07           0   1.724e-07      -6.764

-----------------------------Exchange composition------------------------------

X                5.000e-01 mol

	                               Equiv-    Equivalent      Log 
	Species             Moles      alents      Fraction     Gamma

	NaX               2.230e-01   2.230e-01   4.459e-01    -0.051
	CaX2              9.466e-02   1.893e-01   3.786e-01    -0.200
	MgX2              4.386e-02   8.773e-02   1.755e-01    -0.196

-----------------------------Solution composition------------------------------

	Elements           Molality       Moles

	As                2.386e-07   2.386e-07
	C                 9.632e-03   9.632e-03
	Ca                7.048e-05   7.048e-05
	Cl                2.806e-03   2.806e-03
	Mg                4.996e-05   4.996e-05
	Na                1.412e-02   1.412e-02
	S                 2.369e-04   2.369e-04

----------------------------Description of solution----------------------------

                                       pH  =   8.356      Charge balance
                                       pe  =  12.250      Adjusted to redox equilibrium
                        Activity of water  =   1.000
                           Ionic strength  =   1.403e-02
                       Mass of water (kg)  =   1.000e+00
                 Total alkalinity (eq/kg)  =   9.724e-03
                       Total CO2 (mol/kg)  =   9.632e-03
                      Temperature (deg C)  =  25.000
                  Electrical balance (eq)  =   1.360e-03
 Percent error, 100*(Cat-|An|)/(Cat+|An|)  =   5.01
                               Iterations  =  14
                                  Total H  = 1.110198e+02
                                  Total O  = 5.553542e+01

----------------------------Distribution of species----------------------------

                                                   Log       Log         Log 
   Species                 Molality    Activity  Molality  Activity     Gamma

   OH-                    2.564e-06   2.269e-06    -5.591    -5.644    -0.053
   H+                     4.888e-09   4.410e-09    -8.311    -8.356    -0.045
   H2O                    5.551e+01   9.995e-01     1.744         0         0
As               2.386e-07
   HAsO4-2                2.318e-07   1.438e-07    -6.635    -6.842    -0.207
   H2AsO4-                6.518e-09   5.785e-09    -8.186    -8.238    -0.052
   AsO4-3                 3.017e-10   1.031e-10    -9.520    -9.987    -0.466
   H3AsO4                 4.419e-15   4.434e-15   -14.355   -14.353     0.001
C(-4)            0.000e+00
   CH4                    0.000e+00   0.000e+00  -144.538  -144.537     0.001
C(4)             9.632e-03
   HCO3-                  9.314e-03   8.303e-03    -2.031    -2.081    -0.050
   CO3-2                  1.398e-04   8.829e-05    -3.855    -4.054    -0.199
   CO2                    8.211e-05   8.237e-05    -4.086    -4.084     0.001
   NaHCO3                 5.805e-05   5.824e-05    -4.236    -4.235     0.001
   NaCO3-                 2.310e-05   2.051e-05    -4.636    -4.688    -0.052
   CaCO3                  5.547e-06   5.565e-06    -5.256    -5.255     0.001
   CaHCO3+                4.458e-06   3.975e-06    -5.351    -5.401    -0.050
   MgHCO3+                3.042e-06   2.700e-06    -5.517    -5.569    -0.052
   MgCO3                  2.334e-06   2.341e-06    -5.632    -5.631     0.001
Ca               7.048e-05
   Ca+2                   5.942e-05   3.752e-05    -4.226    -4.426    -0.200
   CaCO3                  5.547e-06   5.565e-06    -5.256    -5.255     0.001
   CaHCO3+                4.458e-06   3.975e-06    -5.351    -5.401    -0.050
   CaSO4                  1.053e-06   1.056e-06    -5.978    -5.976     0.001
   CaOH+                  1.590e-09   1.411e-09    -8.799    -8.850    -0.052
   CaHSO4+                3.075e-14   2.729e-14   -13.512   -13.564    -0.052
Cl               2.806e-03
   Cl-                    2.806e-03   2.484e-03    -2.552    -2.605    -0.053
H(0)             0.000e+00
   H2                     0.000e+00   0.000e+00   -44.362   -44.361     0.001
Mg               4.996e-05
   Mg+2                   4.364e-05   2.779e-05    -4.360    -4.556    -0.196
   MgHCO3+                3.042e-06   2.700e-06    -5.517    -5.569    -0.052
   MgCO3                  2.334e-06   2.341e-06    -5.632    -5.631     0.001
   MgSO4                  9.163e-07   9.192e-07    -6.038    -6.037     0.001
   MgOH+                  2.576e-08   2.287e-08    -7.589    -7.641    -0.052
Na               1.412e-02
   Na+                    1.403e-02   1.247e-02    -1.853    -1.904    -0.051
   NaHCO3                 5.805e-05   5.824e-05    -4.236    -4.235     0.001
   NaCO3-                 2.310e-05   2.051e-05    -4.636    -4.688    -0.052
   NaSO4-                 9.937e-06   8.820e-06    -5.003    -5.055    -0.052
   NaOH                   1.862e-08   1.868e-08    -7.730    -7.729     0.001
O(0)             4.373e-04
   O2                     2.187e-04   2.194e-04    -3.660    -3.659     0.001
S(-2)            0.000e+00
   HS-                    0.000e+00   0.000e+00  -143.345  -143.398    -0.053
   H2S                    0.000e+00   0.000e+00  -144.814  -144.812     0.001
   S-2                    0.000e+00   0.000e+00  -147.759  -147.961    -0.202
S(6)             2.369e-04
   SO4-2                  2.250e-04   1.411e-04    -3.648    -3.850    -0.203
   NaSO4-                 9.937e-06   8.820e-06    -5.003    -5.055    -0.052
   CaSO4                  1.053e-06   1.056e-06    -5.978    -5.976     0.001
   MgSO4                  9.163e-07   9.192e-07    -6.038    -6.037     0.001
   HSO4-                  6.817e-11   6.050e-11   -10.166   -10.218    -0.052
   CaHSO4+                3.075e-14   2.729e-14   -13.512   -13.564    -0.052

------------------------------Saturation indices-------------------------------

	Phase               SI log IAP  log KT

	Anhydrite        -3.92   -8.28   -4.36  CaSO4
	Aragonite        -0.14   -8.48   -8.34  CaCO3
	Calcite              0   -8.48   -8.48  CaCO3
	CH4(g)         -141.68 -144.54   -2.86  CH4
	CO2(g)           -2.62   -4.08   -1.47  CO2
	Dolomite             0  -17.09  -17.09  CaMg(CO3)2
	Gypsum           -3.70   -8.28   -4.58  CaSO4:2H2O
	H2(g)           -41.21  -44.36   -3.15  H2
	H2O(g)           -1.51       0    1.51  H2O
	H2S(g)         -143.82 -144.81   -1.00  H2S
	Halite           -6.09   -4.51    1.58  NaCl
	O2(g)            -0.70   -3.66   -2.96  O2
	Sulfur         -108.48 -103.60    4.88  S

Time 15000. Cell 17: x=              0	y=           6000	z=              0
Using solution 17.
Using exchange 17
Using surface 17.
Using pure phase assemblage 17.

-------------------------------Phase assemblage--------------------------------

                                                      Moles in assemblage
Phase                  SI log IAP  log KT      Initial       Final       Delta

Calcite                 0   -8.48   -8.48    1.019e-01   1.024e-01   5.506e-04
Dolomite                0  -17.09  -17.09    1.599e+00   1.599e+00  -2.092e-04

------------------------------Surface composition------------------------------

Surf          
	  8.550e-02  Surface charge, eq
	  4.584e-01  sigma, C/m**2
	  6.162e-02  psi, V
	 -2.399e+00  -F*psi/RT
	  9.085e-02  exp(-F*psi/RT)
	  6.000e+02  specific area, m**2/g
	  1.800e+04  m**2 for   3.000e+01 g


Surf          
	  1.400e-01  moles
	                                   Mole                     Log
	Species               Moles    Fraction    Molality    Molality

	SurfOH2+          1.045e-01       0.746   1.045e-01      -0.981
	SurfOH            2.726e-02       0.195   2.726e-02      -1.564
	SurfOHAsO4-3      5.523e-03       0.039   5.523e-03      -2.258
	SurfHAsO4-        2.268e-03       0.016   2.268e-03      -2.644
	SurfH2AsO4        2.814e-04       0.002   2.814e-04      -3.551
	SurfO-            1.629e-04       0.001   1.629e-04      -3.788

-----------------------------Exchange composition------------------------------

X                5.000e-01 mol

	                               Equiv-    Equivalent      Log 
	Species             Moles      alents      Fraction     Gamma

	NaX               4.481e-01   4.481e-01   8.962e-01     0.203
	CaX2              2.112e-02   4.223e-02   8.447e-02     0.101
	MgX2              4.837e-03   9.673e-03   1.935e-02     0.411

-----------------------------Solution composition------------------------------

	Elements           Molality       Moles

	As                1.192e-08   1.192e-08
	C                 4.810e-03   4.810e-03
	Ca                4.207e-01   4.207e-01
	Cl                6.129e+00   6.129e+00
	Mg                1.525e-01   1.525e-01
	Na                4.996e+00   4.996e+00
	S                 4.378e-03   4.378e-03

----------------------------Description of solution----------------------------

                                       pH  =   5.665      Charge balance
                                       pe  =  15.006      Adjusted to redox equilibrium
                        Activity of water  =   0.801
                           Ionic strength  =   6.701e+00
                       Mass of water (kg)  =   1.000e+00
                 Total alkalinity (eq/kg)  =   4.431e-03
                       Total CO2 (mol/kg)  =   4.810e-03
                      Temperature (deg C)  =  25.000
                  Electrical balance (eq)  =   7.168e-04
 Percent error, 100*(Cat-|An|)/(Cat+|An|)  =   0.01
                               Iterations  =   4
                                  Total H  = 1.110170e+02
                                  Total O  = 5.553797e+01

----------------------------Distribution of species----------------------------

                                                   Log       Log         Log 
   Species                 Molality    Activity  Molality  Activity     Gamma

   H+                     3.074e-06   2.164e-06    -5.512    -5.665    -0.152
   OH-                    7.954e-09   3.706e-09    -8.099    -8.431    -0.332
   H2O                    5.551e+01   8.011e-01     1.744    -0.096         0
As               1.192e-08
   H2AsO4-                1.190e-08   5.397e-08    -7.924    -7.268     0.656
   HAsO4-2                6.475e-12   2.734e-09   -11.189    -8.563     2.626
   H3AsO4                 4.339e-12   2.030e-11   -11.363   -10.693     0.670
   AsO4-3                 4.942e-21   3.996e-15   -20.306   -14.398     5.908
C(-4)            0.000e+00
   CH4                    0.000e+00   0.000e+00  -144.202  -143.532     0.670
C(4)             4.810e-03
   CaHCO3+                3.357e-03   1.950e-03    -2.474    -2.710    -0.236
   HCO3-                  5.014e-04   2.913e-04    -3.300    -3.536    -0.236
   CO2                    3.782e-04   1.769e-03    -3.422    -2.752     0.670
   MgHCO3+                2.923e-04   1.325e-03    -3.534    -2.878     0.656
   NaHCO3                 2.790e-04   1.305e-03    -3.554    -2.884     0.670
   CaCO3                  1.190e-06   5.565e-06    -5.925    -5.255     0.670
   MgCO3                  5.005e-07   2.341e-06    -6.301    -5.631     0.670
   NaCO3-                 2.066e-07   9.367e-07    -6.685    -6.028     0.656
   CO3-2                  5.542e-08   6.312e-09    -7.256    -8.200    -0.944
Ca               4.207e-01
   Ca+2                   4.159e-01   5.248e-01    -0.381    -0.280     0.101
   CaHCO3+                3.357e-03   1.950e-03    -2.474    -2.710    -0.236
   CaSO4                  1.412e-03   6.605e-03    -2.850    -2.180     0.670
   CaCO3                  1.190e-06   5.565e-06    -5.925    -5.255     0.670
   CaHSO4+                1.847e-08   8.374e-08    -7.733    -7.077     0.656
   CaOH+                  7.112e-09   3.224e-08    -8.148    -7.492     0.656
Cl               6.129e+00
   Cl-                    6.129e+00   3.599e+00     0.787     0.556    -0.231
H(0)             0.000e+00
   H2                     0.000e+00   0.000e+00   -45.161   -44.491     0.670
Mg               1.525e-01
   Mg+2                   1.510e-01   3.887e-01    -0.821    -0.410     0.411
   MgSO4                  1.229e-03   5.748e-03    -2.911    -2.240     0.670
   MgHCO3+                2.923e-04   1.325e-03    -3.534    -2.878     0.656
   MgCO3                  5.005e-07   2.341e-06    -6.301    -5.631     0.670
   MgOH+                  1.153e-07   5.225e-07    -6.938    -6.282     0.656
Na               4.996e+00
   Na+                    4.995e+00   7.970e+00     0.699     0.901     0.203
   NaSO4-                 5.558e-04   2.519e-03    -3.255    -2.599     0.656
   NaHCO3                 2.790e-04   1.305e-03    -3.554    -2.884     0.670
   NaCO3-                 2.066e-07   9.367e-07    -6.685    -6.028     0.656
   NaOH                   4.167e-09   1.949e-08    -8.380    -7.710     0.670
O(0)             1.096e-04
   O2                     5.478e-05   2.562e-04    -4.261    -3.591     0.670
S(-2)            0.000e+00
   H2S                    0.000e+00   0.000e+00  -140.585  -139.915     0.670
   HS-                    0.000e+00   0.000e+00  -140.860  -141.192    -0.332
   S-2                    0.000e+00   0.000e+00  -147.441  -148.445    -1.005
S(6)             4.378e-03
   CaSO4                  1.412e-03   6.605e-03    -2.850    -2.180     0.670
   MgSO4                  1.229e-03   5.748e-03    -2.911    -2.240     0.670
   SO4-2                  1.182e-03   6.308e-05    -2.927    -4.200    -1.273
   NaSO4-                 5.558e-04   2.519e-03    -3.255    -2.599     0.656
   CaHSO4+                1.847e-08   8.374e-08    -7.733    -7.077     0.656
   HSO4-                  2.928e-09   1.327e-08    -8.533    -7.877     0.656

------------------------------Saturation indices-------------------------------

	Phase               SI log IAP  log KT

	Anhydrite        -0.12   -4.48   -4.36  CaSO4
	Aragonite        -0.14   -8.48   -8.34  CaCO3
	Calcite              0   -8.48   -8.48  CaCO3
	CH4(g)         -140.67 -143.53   -2.86  CH4
	CO2(g)           -1.28   -2.75   -1.47  CO2
	Dolomite             0  -17.09  -17.09  CaMg(CO3)2
	Gypsum           -0.09   -4.67   -4.58  CaSO4:2H2O
	H2(g)           -41.34  -44.49   -3.15  H2
	H2O(g)           -1.61   -0.10    1.51  H2O
	H2S(g)         -138.92 -139.92   -1.00  H2S
	Halite           -0.12    1.46    1.58  NaCl
	O2(g)            -0.63   -3.59   -2.96  O2
	Sulfur         -103.46  -98.57    4.88  S

Time 15000. Cell 19: x=          12000	y=           6000	z=              0
Using solution 19.
Using exchange 19
Using surface 19.
Using pure phase assemblage 19.

-------------------------------Phase assemblage--------------------------------

                                                      Moles in assemblage
Phase                  SI log IAP  log KT      Initial       Final       Delta

Calcite                 0   -8.48   -8.48    1.275e-01   1.292e-01   1.678e-03
Dolomite                0  -17.09  -17.09    1.584e+00   1.583e+00  -1.567e-03

------------------------------Surface composition------------------------------

Surf          
	  7.687e-02  Surface charge, eq
	  4.121e-01  sigma, C/m**2
	  7.436e-02  psi, V
	 -2.895e+00  -F*psi/RT
	  5.532e-02  exp(-F*psi/RT)
	  6.000e+02  specific area, m**2/g
	  1.800e+04  m**2 for   3.000e+01 g


Surf          
	  1.400e-01  moles
	                                   Mole                     Log
	Species               Moles    Fraction    Molality    Molality

	SurfOH2+          9.818e-02       0.701   9.816e-02      -1.008
	SurfOH            3.349e-02       0.239   3.348e-02      -1.475
	SurfOHAsO4-3      6.553e-03       0.047   6.552e-03      -2.184
	SurfHAsO4-        1.388e-03       0.010   1.388e-03      -2.858
	SurfO-            2.617e-04       0.002   2.616e-04      -3.582
	SurfH2AsO4        1.317e-04       0.001   1.317e-04      -3.880

-----------------------------Exchange composition------------------------------

X                5.000e-01 mol

	                               Equiv-    Equivalent      Log 
	Species             Moles      alents      Fraction     Gamma

	NaX               4.153e-01   4.153e-01   8.305e-01    -0.041
	CaX2              3.220e-02   6.441e-02   1.288e-01    -0.416
	MgX2              1.017e-02   2.033e-02   4.066e-02    -0.246

-----------------------------Solution composition------------------------------

	Elements           Molality       Moles

[...]
   CH4                    0.000e+00   0.000e+00  -144.795  -144.794     0.001
C(4)             8.332e-03
   HCO3-                  8.037e-03   7.280e-03    -2.095    -2.138    -0.043
   CO3-2                  1.825e-04   1.229e-04    -3.739    -3.910    -0.172
   CO2                    4.538e-05   4.549e-05    -4.343    -4.342     0.001
   NaHCO3                 3.395e-05   3.403e-05    -4.469    -4.468     0.001
   NaCO3-                 2.107e-05   1.902e-05    -4.676    -4.721    -0.044
   CaCO3                  5.552e-06   5.565e-06    -5.256    -5.255     0.001
   CaHCO3+                2.764e-06   2.504e-06    -5.558    -5.601    -0.043
   MgCO3                  2.336e-06   2.341e-06    -5.631    -5.631     0.001
   MgHCO3+                1.884e-06   1.701e-06    -5.725    -5.769    -0.044
Ca               4.919e-05
   Ca+2                   4.006e-05   2.695e-05    -4.397    -4.569    -0.172
   CaCO3                  5.552e-06   5.565e-06    -5.256    -5.255     0.001
   CaHCO3+                2.764e-06   2.504e-06    -5.558    -5.601    -0.043
   CaSO4                  8.149e-07   8.168e-07    -6.089    -6.088     0.001
   CaOH+                  1.783e-09   1.610e-09    -8.749    -8.793    -0.044
   CaHSO4+                1.472e-14   1.329e-14   -13.832   -13.876    -0.044
Cl               4.718e-04
   Cl-                    4.718e-04   4.252e-04    -3.326    -3.371    -0.045
H(0)             0.000e+00
   H2                     0.000e+00   0.000e+00   -44.362   -44.361     0.001
Mg               3.445e-05
   Mg+2                   2.949e-05   1.997e-05    -4.530    -4.700    -0.169
   MgCO3                  2.336e-06   2.341e-06    -5.631    -5.631     0.001
   MgHCO3+                1.884e-06   1.701e-06    -5.725    -5.769    -0.044
   MgSO4                  7.092e-07   7.108e-07    -6.149    -6.148     0.001
   MgOH+                  2.890e-08   2.609e-08    -7.539    -7.584    -0.044
Na               9.259e-03
   Na+                    9.196e-03   8.312e-03    -2.036    -2.080    -0.044
   NaHCO3                 3.395e-05   3.403e-05    -4.469    -4.468     0.001
   NaCO3-                 2.107e-05   1.902e-05    -4.676    -4.721    -0.044
   NaSO4-                 7.008e-06   6.326e-06    -5.154    -5.199    -0.044
   NaOH                   1.972e-08   1.976e-08    -7.705    -7.704     0.001
O(0)             4.375e-04
   O2                     2.187e-04   2.192e-04    -3.660    -3.659     0.001
S(-2)            0.000e+00
   HS-                    0.000e+00   0.000e+00  -143.521  -143.567    -0.045
   H2S                    0.000e+00   0.000e+00  -145.182  -145.181     0.001
   S-2                    0.000e+00   0.000e+00  -147.755  -147.928    -0.174
S(6)             2.353e-04
   SO4-2                  2.268e-04   1.519e-04    -3.644    -3.819    -0.174
   NaSO4-                 7.008e-06   6.326e-06    -5.154    -5.199    -0.044
   CaSO4                  8.149e-07   8.168e-07    -6.089    -6.088     0.001
   MgSO4                  7.092e-07   7.108e-07    -6.149    -6.148     0.001
   HSO4-                  4.544e-11   4.102e-11   -10.343   -10.387    -0.044
   CaHSO4+                1.472e-14   1.329e-14   -13.832   -13.876    -0.044

------------------------------Saturation indices-------------------------------

	Phase               SI log IAP  log KT

	Anhydrite        -4.03   -8.39   -4.36  CaSO4
	Aragonite        -0.14   -8.48   -8.34  CaCO3
	Calcite              0   -8.48   -8.48  CaCO3
	CH4(g)         -141.93 -144.79   -2.86  CH4
	CO2(g)           -2.87   -4.34   -1.47  CO2
	Dolomite             0  -17.09  -17.09  CaMg(CO3)2
	Gypsum           -3.81   -8.39   -4.58  CaSO4:2H2O
	H2(g)           -41.21  -44.36   -3.15  H2
	H2O(g)           -1.51       0    1.51  H2O
	H2S(g)         -144.18 -145.18   -1.00  H2S
	Halite           -7.03   -5.45    1.58  NaCl
	O2(g)            -0.70   -3.66   -2.96  O2
	Sulfur         -108.85 -103.97    4.88  S

Time 31000. Cell 425: x=          48000	y=          48000	z=            400
Using solution 425.
Using exchange 425
Using surface 425.
Using pure phase assemblage 425.

-------------------------------Phase assemblage--------------------------------

                                                      Moles in assemblage
Phase                  SI log IAP  log KT      Initial       Final       Delta

Calcite                 0   -8.48   -8.48    1.261e-01   1.256e-01  -4.340e-04
Dolomite                0  -17.09  -17.09    1.549e+00   1.549e+00   7.103e-07

------------------------------Surface composition------------------------------

Surf          
	 -1.769e-03  Surface charge, eq
	 -9.481e-03  sigma, C/m**2
	 -3.934e-02  psi, V
	  1.531e+00  -F*psi/RT
	  4.625e+00  exp(-F*psi/RT)
	  6.000e+02  specific area, m**2/g
	  1.800e+04  m**2 for   3.000e+01 g


Surf          
	  1.400e-01  moles
	                                   Mole                     Log
	Species               Moles    Fraction    Molality    Molality

	SurfOH            9.539e-02       0.681   9.539e-02      -1.021
	SurfOH2+          2.947e-02       0.211   2.947e-02      -1.531
	SurfOHAsO4-3      8.050e-03       0.058   8.051e-03      -2.094
	SurfO-            7.072e-03       0.051   7.073e-03      -2.150
	SurfHAsO4-        1.721e-05           0   1.721e-05      -4.764
	SurfH2AsO4        1.721e-07           0   1.721e-07      -6.764

-----------------------------Exchange composition------------------------------

X                5.000e-01 mol

	                               Equiv-    Equivalent      Log 
	Species             Moles      alents      Fraction     Gamma

	NaX               1.625e-01   1.625e-01   3.251e-01    -0.043
	CaX2              1.152e-01   2.304e-01   4.608e-01    -0.167
	MgX2              5.352e-02   1.070e-01   2.141e-01    -0.165

-----------------------------Solution composition------------------------------

	Elements           Molality       Moles

	As                3.627e-07   3.627e-07
	C                 8.151e-03   8.151e-03
	Ca                5.959e-05   5.959e-05
	Cl                1.381e-04   1.381e-04
	Mg                4.211e-05   4.211e-05
	Na                8.526e-03   8.525e-03
	S                 2.351e-04   2.351e-04

----------------------------Description of solution----------------------------

                                       pH  =   8.465      Charge balance
                                       pe  =  12.140      Adjusted to redox equilibrium
                        Activity of water  =   1.000
                           Ionic strength  =   9.181e-03
                       Mass of water (kg)  =   1.000e+00
                 Total alkalinity (eq/kg)  =   8.267e-03
                       Total CO2 (mol/kg)  =   8.151e-03
                      Temperature (deg C)  =  25.000
                  Electrical balance (eq)  =  -1.467e-04
 Percent error, 100*(Cat-|An|)/(Cat+|An|)  =  -0.84
                               Iterations  =  12
                                  Total H  = 1.110183e+02
                                  Total O  = 5.553097e+01

----------------------------Distribution of species----------------------------

                                                   Log       Log         Log 
   Species                 Molality    Activity  Molality  Activity     Gamma

   OH-                    3.232e-06   2.921e-06    -5.491    -5.534    -0.044
   H+                     3.740e-09   3.426e-09    -8.427    -8.465    -0.038
   H2O                    5.551e+01   9.997e-01     1.744         0         0
As               3.627e-07
   HAsO4-2                3.539e-07   2.379e-07    -6.451    -6.624    -0.173
   H2AsO4-                8.211e-09   7.434e-09    -8.086    -8.129    -0.043
   AsO4-3                 5.367e-10   2.196e-10    -9.270    -9.658    -0.388
   H3AsO4                 4.417e-15   4.427e-15   -14.355   -14.354     0.001
C(-4)            0.000e+00
   CH4                    0.000e+00   0.000e+00  -144.710  -144.709     0.001
C(4)             8.151e-03
   HCO3-                  7.892e-03   7.169e-03    -2.103    -2.145    -0.042
   CO3-2                  1.441e-04   9.812e-05    -3.841    -4.008    -0.167
   CO2                    5.513e-05   5.525e-05    -4.259    -4.258     0.001
   NaHCO3                 3.090e-05   3.096e-05    -4.510    -4.509     0.001
   NaCO3-                 1.550e-05   1.403e-05    -4.810    -4.853    -0.043
   CaCO3                  5.553e-06   5.565e-06    -5.255    -5.255     0.001
   CaHCO3+                3.399e-06   3.088e-06    -5.469    -5.510    -0.042
   MgCO3                  2.337e-06   2.341e-06    -5.631    -5.631     0.001
   MgHCO3+                2.317e-06   2.098e-06    -5.635    -5.678    -0.043
Ca               5.959e-05
   Ca+2                   4.961e-05   3.376e-05    -4.304    -4.472    -0.167
   CaCO3                  5.553e-06   5.565e-06    -5.255    -5.255     0.001
   CaHCO3+                3.399e-06   3.088e-06    -5.469    -5.510    -0.042
   CaSO4                  1.032e-06   1.034e-06    -5.986    -5.985     0.001
   CaOH+                  1.805e-09   1.635e-09    -8.743    -8.787    -0.043
   CaHSO4+                2.293e-14   2.076e-14   -13.640   -13.683    -0.043
Cl               1.381e-04
   Cl-                    1.381e-04   1.248e-04    -3.860    -3.904    -0.044
H(0)             0.000e+00
   H2                     0.000e+00   0.000e+00   -44.361   -44.361     0.001
Mg               4.211e-05
   Mg+2                   3.653e-05   2.501e-05    -4.437    -4.602    -0.165
   MgCO3                  2.337e-06   2.341e-06    -5.631    -5.631     0.001
   MgHCO3+                2.317e-06   2.098e-06    -5.635    -5.678    -0.043
   MgSO4                  8.982e-07   9.001e-07    -6.047    -6.046     0.001
   MgOH+                  2.926e-08   2.649e-08    -7.534    -7.577    -0.043
Na               8.526e-03
   Na+                    8.473e-03   7.680e-03    -2.072    -2.115    -0.043
   NaHCO3                 3.090e-05   3.096e-05    -4.510    -4.509     0.001
   NaCO3-                 1.550e-05   1.403e-05    -4.810    -4.853    -0.043
   NaSO4-                 6.527e-06   5.910e-06    -5.185    -5.228    -0.043
   NaOH                   1.477e-08   1.480e-08    -7.831    -7.830     0.001
O(0)             4.375e-04
   O2                     2.187e-04   2.192e-04    -3.660    -3.659     0.001
S(-2)            0.000e+00
   HS-                    0.000e+00   0.000e+00  -143.427  -143.471    -0.044
   H2S                    0.000e+00   0.000e+00  -144.995  -144.994     0.001
   S-2                    0.000e+00   0.000e+00  -147.755  -147.923    -0.169
S(6)             2.351e-04
   SO4-2                  2.266e-04   1.536e-04    -3.645    -3.814    -0.169
   NaSO4-                 6.527e-06   5.910e-06    -5.185    -5.228    -0.043
   CaSO4                  1.032e-06   1.034e-06    -5.986    -5.985     0.001
   MgSO4                  8.982e-07   9.001e-07    -6.047    -6.046     0.001
   HSO4-                  5.649e-11   5.115e-11   -10.248   -10.291    -0.043
   CaHSO4+                2.293e-14   2.076e-14   -13.640   -13.683    -0.043

------------------------------Saturation indices-------------------------------

	Phase               SI log IAP  log KT

	Anhydrite        -3.92   -8.29   -4.36  CaSO4
	Aragonite        -0.14   -8.48   -8.34  CaCO3
	Calcite              0   -8.48   -8.48  CaCO3
	CH4(g)         -141.85 -144.71   -2.86  CH4
	CO2(g)           -2.79   -4.26   -1.47  CO2
	Dolomite             0  -17.09  -17.09  CaMg(CO3)2
	Gypsum           -3.70   -8.29   -4.58  CaSO4:2H2O
	H2(g)           -41.21  -44.36   -3.15  H2
	H2O(g)           -1.51       0    1.51  H2O
	H2S(g)         -144.00 -144.99   -1.00  H2S
	Halite           -7.60   -6.02    1.58  NaCl
	O2(g)            -0.70   -3.66   -2.96  O2
	Sulfur         -108.67 -103.78    4.88  S

Time 31000. Cell 426: x=          54000	y=          48000	z=            400
Using solution 426.
Using exchange 426
Using surface 426.
Using pure phase assemblage 426.

-------------------------------Phase assemblage--------------------------------

                                                      Moles in assemblage
Phase                  SI log IAP  log KT      Initial       Final       Delta

Calcite                 0   -8.48   -8.48    1.168e-01   1.163e-01  -5.344e-04
Dolomite                0  -17.09  -17.09    1.552e+00   1.552e+00   1.472e-05

------------------------------Surface composition------------------------------

Surf          
	 -1.250e-03  Surface charge, eq
	 -6.700e-03  sigma, C/m**2
	 -2.929e-02  psi, V
	  1.140e+00  -F*psi/RT
	  3.127e+00  exp(-F*psi/RT)
	  6.000e+02  specific area, m**2/g
	  1.800e+04  m**2 for   3.000e+01 g


Surf          
	  1.400e-01  moles
	                                   Mole                     Log
	Species               Moles    Fraction    Molality    Molality

	SurfOH            9.513e-02       0.680   9.513e-02      -1.022
	SurfOH2+          2.986e-02       0.213   2.986e-02      -1.525
	SurfOHAsO4-3      8.049e-03       0.057   8.049e-03      -2.094
	SurfO-            6.943e-03       0.050   6.943e-03      -2.158
	SurfHAsO4-        1.776e-05           0   1.776e-05      -4.751
	SurfH2AsO4        1.804e-07           0   1.804e-07      -6.744

-----------------------------Exchange composition------------------------------

X                5.000e-01 mol

	                               Equiv-    Equivalent      Log 
	Species             Moles      alents      Fraction     Gamma

	NaX               1.337e-01   1.337e-01   2.674e-01    -0.042
	CaX2              1.250e-01   2.501e-01   5.002e-01    -0.166
	MgX2              5.810e-02   1.162e-01   2.324e-01    -0.163

-----------------------------Solution composition------------------------------

	Elements           Molality       Moles

	As                1.701e-07   1.701e-07
	C                 8.068e-03   8.068e-03
	Ca                8.701e-05   8.701e-05
	Cl                1.340e-04   1.340e-04
	Mg                6.228e-05   6.228e-05
	Na                8.260e-03   8.260e-03
	S                 2.351e-04   2.351e-04

----------------------------Description of solution----------------------------

                                       pH  =   8.288      Charge balance
                                       pe  =  12.317      Adjusted to redox equilibrium
                        Activity of water  =   1.000
                           Ionic strength  =   9.007e-03
                       Mass of water (kg)  =   1.000e+00
                 Total alkalinity (eq/kg)  =   8.101e-03
                       Total CO2 (mol/kg)  =   8.068e-03
                      Temperature (deg C)  =  25.000
                  Electrical balance (eq)  =  -1.465e-04
 Percent error, 100*(Cat-|An|)/(Cat+|An|)  =  -0.86
                               Iterations  =  12
                                  Total H  = 1.110183e+02
                                  Total O  = 5.553072e+01

----------------------------Distribution of species----------------------------

                                                   Log       Log         Log 
   Species                 Molality    Activity  Molality  Activity     Gamma

   OH-                    2.149e-06   1.944e-06    -5.668    -5.711    -0.044
   H+                     5.616e-09   5.149e-09    -8.251    -8.288    -0.038
   H2O                    5.551e+01   9.997e-01     1.744         0         0
As               1.701e-07
   HAsO4-2                1.642e-07   1.107e-07    -6.785    -6.956    -0.171
   H2AsO4-                5.738e-09   5.200e-09    -8.241    -8.284    -0.043
   AsO4-3                 1.650e-10   6.802e-11    -9.782   -10.167    -0.385
   H3AsO4                 4.643e-15   4.653e-15   -14.333   -14.332     0.001
C(-4)            0.000e+00
   CH4                    0.000e+00   0.000e+00  -144.536  -144.535     0.001
C(4)             8.068e-03
   HCO3-                  7.835e-03   7.123e-03    -2.106    -2.147    -0.041
   CO3-2                  9.497e-05   6.488e-05    -4.022    -4.188    -0.165
   CO2                    8.231e-05   8.248e-05    -4.085    -4.084     0.001
   NaHCO3                 2.978e-05   2.985e-05    -4.526    -4.525     0.001
   NaCO3-                 9.934e-06   9.002e-06    -5.003    -5.046    -0.043
   CaCO3                  5.553e-06   5.565e-06    -5.255    -5.255     0.001
   CaHCO3+                5.104e-06   4.640e-06    -5.292    -5.333    -0.041
   MgHCO3+                3.478e-06   3.152e-06    -5.459    -5.501    -0.043
   MgCO3                  2.337e-06   2.341e-06    -5.631    -5.631     0.001
Ca               8.701e-05
   Ca+2                   7.480e-05   5.106e-05    -4.126    -4.292    -0.166
   CaCO3                  5.553e-06   5.565e-06    -5.255    -5.255     0.001
   CaHCO3+                5.104e-06   4.640e-06    -5.292    -5.333    -0.041
   CaSO4                  1.561e-06   1.564e-06    -5.807    -5.806     0.001
   CaOH+                  1.816e-09   1.645e-09    -8.741    -8.784    -0.043
   CaHSO4+                5.205e-14   4.717e-14   -13.284   -13.326    -0.043
Cl               1.340e-04
   Cl-                    1.340e-04   1.213e-04    -3.873    -3.916    -0.043
H(0)             0.000e+00
   H2                     0.000e+00   0.000e+00   -44.361   -44.361     0.001
Mg               6.228e-05
   Mg+2                   5.508e-05   3.782e-05    -4.259    -4.422    -0.163
   MgHCO3+                3.478e-06   3.152e-06    -5.459    -5.501    -0.043
   MgCO3                  2.337e-06   2.341e-06    -5.631    -5.631     0.001
   MgSO4                  1.358e-06   1.361e-06    -5.867    -5.866     0.001
   MgOH+                  2.942e-08   2.666e-08    -7.531    -7.574    -0.043
Na               8.260e-03
   Na+                    8.214e-03   7.452e-03    -2.085    -2.128    -0.042
   NaHCO3                 2.978e-05   2.985e-05    -4.526    -4.525     0.001
   NaCO3-                 9.934e-06   9.002e-06    -5.003    -5.046    -0.043
   NaSO4-                 6.326e-06   5.733e-06    -5.199    -5.242    -0.043
   NaOH                   9.540e-09   9.559e-09    -8.020    -8.020     0.001
O(0)             4.375e-04
   O2                     2.187e-04   2.192e-04    -3.660    -3.659     0.001
S(-2)            0.000e+00
   HS-                    0.000e+00   0.000e+00  -143.250  -143.294    -0.044
   H2S                    0.000e+00   0.000e+00  -144.641  -144.640     0.001
   S-2                    0.000e+00   0.000e+00  -147.756  -147.924    -0.167
S(6)             2.351e-04
   SO4-2                  2.258e-04   1.535e-04    -3.646    -3.814    -0.168
   NaSO4-                 6.326e-06   5.733e-06    -5.199    -5.242    -0.043
   CaSO4                  1.561e-06   1.564e-06    -5.807    -5.806     0.001
   MgSO4                  1.358e-06   1.361e-06    -5.867    -5.866     0.001
   HSO4-                  8.480e-11   7.684e-11   -10.072   -10.114    -0.043
   CaHSO4+                5.205e-14   4.717e-14   -13.284   -13.326    -0.043

------------------------------Saturation indices-------------------------------

	Phase               SI log IAP  log KT

	Anhydrite        -3.74   -8.11   -4.36  CaSO4
	Aragonite        -0.14   -8.48   -8.34  CaCO3
	Calcite              0   -8.48   -8.48  CaCO3
	CH4(g)         -141.68 -144.54   -2.86  CH4
	CO2(g)           -2.62   -4.08   -1.47  CO2
	Dolomite             0  -17.09  -17.09  CaMg(CO3)2
	Gypsum           -3.53   -8.11   -4.58  CaSO4:2H2O
	H2(g)           -41.21  -44.36   -3.15  H2
	H2O(g)           -1.51       0    1.51  H2O
	H2S(g)         -143.64 -144.64   -1.00  H2S
	Halite           -7.63   -6.04    1.58  NaCl
	O2(g)            -0.70   -3.66   -2.96  O2
	Sulfur         -108.31 -103.43    4.88  S

Time 31000. Cell 428: x=          66000	y=          48000	z=            400
Cell is dry.
Time 31000. Cell 430: x=          78000	y=          48000	z=            400
Cell is dry.
Time 31000. Cell 432: x=          90000	y=          48000	z=            400
Cell is dry.
