Output file:    print_check_transient.O.chem
Chemistry file: print_check_transient.chem.dat
Database file:  phast.dat

------------------
Reading data base.
------------------

	SOLUTION_MASTER_SPECIES
	SOLUTION_SPECIES
	PHASES
	EXCHANGE_MASTER_SPECIES
	EXCHANGE_SPECIES
	SURFACE_MASTER_SPECIES
	SURFACE_SPECIES
	RATES
	END
------------------------------------
Reading input data for simulation 1.
------------------------------------

	SURFACE_MASTER_SPECIES
	        Surf    SurfOH
	SURFACE_SPECIES
	        SurfOH = SurfOH
	                log_k   0.0
	        SurfOH  + H+ = SurfOH2+
	                log_k   7.29
	        SurfOH = SurfO- + H+
	                log_k   -8.93
	        SurfOH + AsO4-3 + 3H+ = SurfH2AsO4 + H2O
	                log_k   29.31
	        SurfOH + AsO4-3 + 2H+ = SurfHAsO4- + H2O
	                log_k   23.51
	        SurfOH + AsO4-3 = SurfOHAsO4-3
	                log_k   10.58
	SOLUTION_MASTER_SPECIES
	        As       H3AsO4        -1.0     74.9216         74.9216
	SOLUTION_SPECIES
		H3AsO4 = H2AsO4- + H+
		log_k	-2.3
		delta_h	-7.066	kJ
		H3AsO4 = HAsO4-2 + 2H+
		log_k	-9.46
		delta_h	-3.846	kJ
		H3AsO4 = AsO4-3 + 3H+
		log_k	-21.11
		delta_h	14.354	kJ
	        H3AsO4 = H2AsO4- + H+ 
	        log_k           -2.243
	        delta_h -1.69 kcal
	        H3AsO4 = HAsO4-2 + 2H+ 
	        log_k           -9.001
	        delta_h -0.92 kcal
	        H3AsO4 = AsO4-3 + 3H+
	        log_k           -20.597
	        delta_h 3.43 kcal
	        H3AsO4 = H3AsO4
	        log_k           0.0
	        H3AsO4 = AsO4-3 + 3H+
	        log_k   -20.7
	        H+ + AsO4-3 = HAsO4-2
	        log_k   11.50
	        2H+ + AsO4-3 = H2AsO4-
	        log_k           18.46
	SOLUTION 1 20 x precipitation
	        pH      4.6
	        pe      4.0     O2(g)   -0.7
	        temp    25.
	        units   mmol/kgw
	        Ca      .191625
	        Mg      .035797
	        Na      .122668
	        Cl      .133704
	        C       .01096
	        S       .235153         charge
	END
-------------------------------------------
Beginning of initial solution calculations.
-------------------------------------------

Initial solution 1.	20 x precipitation

-----------------------------Solution composition------------------------------

	Elements           Molality       Moles

	C                 1.096e-05   1.096e-05
	Ca                1.916e-04   1.916e-04
	Cl                1.337e-04   1.337e-04
	Mg                3.580e-05   3.580e-05
	Na                1.227e-04   1.227e-04
	S                 2.351e-04   2.351e-04  Charge balance

----------------------------Description of solution----------------------------

                                       pH  =   4.600    
                                       pe  =  16.005      Equilibrium with O2(g)
                        Activity of water  =   1.000
                           Ionic strength  =   1.035e-03
                       Mass of water (kg)  =   1.000e+00
                 Total alkalinity (eq/kg)  =  -2.630e-05
                       Total CO2 (mol/kg)  =   1.096e-05
                      Temperature (deg C)  =  25.000
                  Electrical balance (eq)  =   7.111e-16
 Percent error, 100*(Cat-|An|)/(Cat+|An|)  =      0
                               Iterations  =   9
                                  Total H  = 1.110125e+02
                                  Total O  = 5.550762e+01

----------------------------Distribution of species----------------------------

                                                   Log       Log         Log 
   Species                 Molality    Activity  Molality  Activity     Gamma

   H+                     2.600e-05   2.512e-05    -4.585    -4.600    -0.015
   OH-                    4.133e-10   3.985e-10    -9.384    -9.400    -0.016
   H2O                    5.551e+01   1.000e+00     1.744         0         0
C(-4)            0.000e+00
   CH4                    0.000e+00   0.000e+00  -145.418  -145.418         0
C(4)             1.096e-05
   CO2                    1.076e-05   1.076e-05    -4.968    -4.968         0
   HCO3-                  1.975e-07   1.906e-07    -6.704    -6.720    -0.015
   CaHCO3+                4.048e-10   3.907e-10    -9.393    -9.408    -0.015
   MgHCO3+                6.905e-11   6.660e-11   -10.161   -10.177    -0.016
   NaHCO3                 1.267e-11   1.267e-11   -10.897   -10.897         0
   CO3-2                  4.105e-13   3.559e-13   -12.387   -12.449    -0.062
   CaCO3                  9.601e-14   9.603e-14   -13.018   -13.018         0
   MgCO3                  1.014e-14   1.014e-14   -13.994   -13.994         0
   NaCO3-                 8.122e-16   7.833e-16   -15.090   -15.106    -0.016
Ca               1.916e-04
   Ca+2                   1.853e-04   1.606e-04    -3.732    -3.794    -0.062
   CaSO4                  6.296e-06   6.297e-06    -5.201    -5.201         0
   CaHSO4+                9.608e-10   9.267e-10    -9.017    -9.033    -0.016
   CaHCO3+                4.048e-10   3.907e-10    -9.393    -9.408    -0.015
   CaOH+                  1.100e-12   1.061e-12   -11.958   -11.974    -0.016
   CaCO3                  9.601e-14   9.603e-14   -13.018   -13.018         0
Cl               1.337e-04
   Cl-                    1.337e-04   1.289e-04    -3.874    -3.890    -0.016
H(0)             0.000e+00
   H2                     0.000e+00   0.000e+00   -44.360   -44.360         0
Mg               3.580e-05
   Mg+2                   3.442e-05   2.986e-05    -4.463    -4.525    -0.062
   MgSO4                  1.375e-06   1.375e-06    -5.862    -5.862         0
   MgHCO3+                6.905e-11   6.660e-11   -10.161   -10.177    -0.016
   MgOH+                  4.475e-12   4.316e-12   -11.349   -11.365    -0.016
   MgCO3                  1.014e-14   1.014e-14   -13.994   -13.994         0
Na               1.227e-04
   Na+                    1.225e-04   1.182e-04    -3.912    -3.927    -0.016
   NaSO4-                 1.207e-07   1.164e-07    -6.918    -6.934    -0.016
   NaHCO3                 1.267e-11   1.267e-11   -10.897   -10.897         0
   NaOH                   3.109e-14   3.109e-14   -13.507   -13.507         0
   NaCO3-                 8.122e-16   7.833e-16   -15.090   -15.106    -0.016
O(0)             4.374e-04
   O2                     2.187e-04   2.188e-04    -3.660    -3.660         0
S(-2)            0.000e+00
   H2S                    0.000e+00   0.000e+00  -137.155  -137.155         0
   HS-                    0.000e+00   0.000e+00  -139.481  -139.497    -0.016
   S-2                    0.000e+00   0.000e+00  -147.752  -147.815    -0.062
S(6)             2.351e-04
   SO4-2                  2.268e-04   1.965e-04    -3.644    -3.707    -0.062
   CaSO4                  6.296e-06   6.297e-06    -5.201    -5.201         0
   MgSO4                  1.375e-06   1.375e-06    -5.862    -5.862         0
   HSO4-                  4.975e-07   4.798e-07    -6.303    -6.319    -0.016
   NaSO4-                 1.207e-07   1.164e-07    -6.918    -6.934    -0.016
   CaHSO4+                9.608e-10   9.267e-10    -9.017    -9.033    -0.016

------------------------------Saturation indices-------------------------------

	Phase               SI log IAP  log KT

	Anhydrite        -3.14   -7.50   -4.36  CaSO4
	Aragonite        -7.91  -16.24   -8.34  CaCO3
	Calcite          -7.76  -16.24   -8.48  CaCO3
	CH4(g)         -142.56 -145.42   -2.86  CH4
	CO2(g)           -3.50   -4.97   -1.47  CO2
	Dolomite        -16.13  -33.22  -17.09  CaMg(CO3)2
	Gypsum           -2.92   -7.50   -4.58  CaSO4:2H2O
	H2(g)           -41.21  -44.36   -3.15  H2
	H2O(g)           -1.51       0    1.51  H2O
	H2S(g)         -136.16 -137.16   -1.00  H2S
	Halite           -9.40   -7.82    1.58  NaCl
	O2(g)            -0.70   -3.66   -2.96  O2
	Sulfur         -100.83  -95.95    4.88  S

------------------
End of simulation.
------------------

------------------------------------
Reading input data for simulation 2.
------------------------------------

	USE solution 1
	EQUILIBRIUM_PHASES 1
	        Dolomite        0.0     1.6
	        Calcite         0.0     0.1
	        CO2(g)          -1.5    100.
	SAVE solution 1
	END
-----------------------------------------
Beginning of batch-reaction calculations.
-----------------------------------------

Reaction step 1.

-------------------------------Phase assemblage--------------------------------

                                                      Moles in assemblage
Phase                  SI log IAP  log KT      Initial       Final       Delta

Calcite                 0   -8.48   -8.48    1.000e-01   9.966e-02  -3.441e-04
CO2(g)              -1.50   -2.97   -1.47    1.000e+02   1.000e+02  -4.066e-03
Dolomite                0  -17.09  -17.09    1.600e+00   1.599e+00  -1.349e-03

-----------------------------Solution composition------------------------------

	Elements           Molality       Moles

	C                 7.119e-03   7.119e-03
	Ca                1.885e-03   1.884e-03
	Cl                1.337e-04   1.337e-04
	Mg                1.385e-03   1.385e-03
	Na                1.227e-04   1.227e-04
	S                 2.351e-04   2.351e-04

----------------------------Description of solution----------------------------

                                       pH  =   7.047      Charge balance
                                       pe  =  13.558      Adjusted to redox equilibrium
                        Activity of water  =   1.000
                           Ionic strength  =   9.629e-03
                       Mass of water (kg)  =   9.999e-01
                 Total alkalinity (eq/kg)  =   6.057e-03
                       Total CO2 (mol/kg)  =   7.119e-03
                      Temperature (deg C)  =  25.000
                  Electrical balance (eq)  =   2.136e-15
 Percent error, 100*(Cat-|An|)/(Cat+|An|)  =      0
                               Iterations  =   9
                                  Total H  = 1.110125e+02
                                  Total O  = 5.552487e+01

----------------------------Distribution of species----------------------------

                                                   Log       Log         Log 
   Species                 Molality    Activity  Molality  Activity     Gamma

   OH-                    1.236e-07   1.115e-07    -6.908    -6.953    -0.045
   H+                     9.814e-08   8.977e-08    -7.008    -7.047    -0.039
   H2O                    5.551e+01   9.998e-01     1.744         0         0
C(-4)            0.000e+00
   CH4                    0.000e+00   0.000e+00  -143.421  -143.420     0.001
C(4)             7.119e-03
   HCO3-                  5.883e-03   5.333e-03    -2.230    -2.273    -0.043
   CO2                    1.074e-03   1.077e-03    -2.969    -2.968     0.001
   CaHCO3+                8.923e-05   8.090e-05    -4.049    -4.092    -0.043
   MgHCO3+                6.082e-05   5.496e-05    -4.216    -4.260    -0.044
   CaCO3                  5.553e-06   5.565e-06    -5.256    -5.255     0.001
   CO3-2                  4.124e-06   2.786e-06    -5.385    -5.555    -0.170
   MgCO3                  2.336e-06   2.341e-06    -5.631    -5.631     0.001
   NaHCO3                 3.310e-07   3.317e-07    -6.480    -6.479     0.001
   NaCO3-                 6.350e-09   5.738e-09    -8.197    -8.241    -0.044
Ca               1.885e-03
   Ca+2                   1.761e-03   1.189e-03    -2.754    -2.925    -0.171
   CaHCO3+                8.923e-05   8.090e-05    -4.049    -4.092    -0.043
   CaSO4                  2.881e-05   2.888e-05    -4.540    -4.539     0.001
   CaCO3                  5.553e-06   5.565e-06    -5.256    -5.255     0.001
   CaOH+                  2.432e-09   2.198e-09    -8.614    -8.658    -0.044
   CaHSO4+                1.681e-11   1.519e-11   -10.775   -10.819    -0.044
Cl               1.337e-04
   Cl-                    1.337e-04   1.206e-04    -3.874    -3.919    -0.045
H(0)             0.000e+00
   H2                     0.000e+00   0.000e+00   -44.361   -44.361     0.001
Mg               1.385e-03
   Mg+2                   1.296e-03   8.807e-04    -2.887    -3.055    -0.168
   MgHCO3+                6.082e-05   5.496e-05    -4.216    -4.260    -0.044
   MgSO4                  2.507e-05   2.513e-05    -4.601    -4.600     0.001
   MgCO3                  2.336e-06   2.341e-06    -5.631    -5.631     0.001
   MgOH+                  3.941e-08   3.561e-08    -7.404    -7.448    -0.044
Na               1.227e-04
   Na+                    1.223e-04   1.106e-04    -3.913    -3.956    -0.044
   NaHCO3                 3.310e-07   3.317e-07    -6.480    -6.479     0.001
   NaSO4-                 7.467e-08   6.747e-08    -7.127    -7.171    -0.044
   NaCO3-                 6.350e-09   5.738e-09    -8.197    -8.241    -0.044
   NaOH                   8.120e-12   8.138e-12   -11.090   -11.089     0.001
O(0)             4.375e-04
   O2                     2.187e-04   2.192e-04    -3.660    -3.659     0.001
S(-2)            0.000e+00
   HS-                    0.000e+00   0.000e+00  -142.108  -142.153    -0.045
   H2S                    0.000e+00   0.000e+00  -142.259  -142.258     0.001
   S-2                    0.000e+00   0.000e+00  -147.852  -148.024    -0.172
S(6)             2.351e-04
   SO4-2                  1.811e-04   1.217e-04    -3.742    -3.915    -0.173
   CaSO4                  2.881e-05   2.888e-05    -4.540    -4.539     0.001
   MgSO4                  2.507e-05   2.513e-05    -4.601    -4.600     0.001
   NaSO4-                 7.467e-08   6.747e-08    -7.127    -7.171    -0.044
   HSO4-                  1.176e-09   1.062e-09    -8.930    -8.974    -0.044
   CaHSO4+                1.681e-11   1.519e-11   -10.775   -10.819    -0.044

------------------------------Saturation indices-------------------------------

	Phase               SI log IAP  log KT

	Anhydrite        -2.48   -6.84   -4.36  CaSO4
	Aragonite        -0.14   -8.48   -8.34  CaCO3
	Calcite              0   -8.48   -8.48  CaCO3
	CH4(g)         -140.56 -143.42   -2.86  CH4
	CO2(g)           -1.50   -2.97   -1.47  CO2
	Dolomite             0  -17.09  -17.09  CaMg(CO3)2
	Gypsum           -2.26   -6.84   -4.58  CaSO4:2H2O
	H2(g)           -41.21  -44.36   -3.15  H2
	H2O(g)           -1.51       0    1.51  H2O
	H2S(g)         -141.26 -142.26   -1.00  H2S
	Halite           -9.46   -7.87    1.58  NaCl
	O2(g)            -0.70   -3.66   -2.96  O2
	Sulfur         -105.93 -101.05    4.88  S

------------------
End of simulation.
------------------

------------------------------------
Reading input data for simulation 3.
------------------------------------

	SOLUTION 2 Brine
	        pH      5.713
	        pe      4.0     O2(g)   -0.7
	        temp    25.
	        units   mol/kgw
	        Ca      .4655
	        Mg      .1609
	        Na      5.402
	        Cl      6.642           charge
	        C       .00396
	        S       .004725
	        As      .01 umol/kgw
	END
-------------------------------------------
Beginning of initial solution calculations.
-------------------------------------------

Initial solution 2.	Brine

-----------------------------Solution composition------------------------------

	Elements           Molality       Moles

	As                1.000e-08   1.000e-08
	C                 3.960e-03   3.960e-03
	Ca                4.655e-01   4.655e-01
	Cl                6.642e+00   6.642e+00  Charge balance
	Mg                1.609e-01   1.609e-01
	Na                5.402e+00   5.402e+00
	S                 4.725e-03   4.725e-03

----------------------------Description of solution----------------------------

                                       pH  =   5.713    
                                       pe  =  14.945      Equilibrium with O2(g)
                        Activity of water  =   0.785
                           Ionic strength  =   7.266e+00
                       Mass of water (kg)  =   1.000e+00
                 Total alkalinity (eq/kg)  =   3.758e-03
                       Total CO2 (mol/kg)  =   3.960e-03
                      Temperature (deg C)  =  25.000
                  Electrical balance (eq)  =   1.027e-12
 Percent error, 100*(Cat-|An|)/(Cat+|An|)  =      0
                               Iterations  =  11
                                  Total H  = 1.110162e+02
                                  Total O  = 5.553688e+01

----------------------------Distribution of species----------------------------

                                                   Log       Log         Log 
   Species                 Molality    Activity  Molality  Activity     Gamma

   H+                     2.755e-06   1.936e-06    -5.560    -5.713    -0.153
   OH-                    8.773e-09   4.056e-09    -8.057    -8.392    -0.335
   H2O                    5.551e+01   7.846e-01     1.744    -0.105         0
As               1.000e-08
   H2AsO4-                9.993e-09   5.476e-08    -8.000    -7.262     0.739
   H3AsO4                 3.458e-12   1.843e-11   -11.461   -10.735     0.727
   HAsO4-2                3.440e-12   3.100e-09   -11.463    -8.509     2.955
   AsO4-3                 1.137e-21   5.063e-15   -20.944   -14.296     6.649
C(-4)            0.000e+00
   CH4                    0.000e+00   0.000e+00  -144.357  -143.631     0.727
C(4)             3.960e-03
   CaHCO3+                3.015e-03   1.745e-03    -2.521    -2.758    -0.238
   HCO3-                  3.336e-04   1.931e-04    -3.477    -3.714    -0.238
   MgHCO3+                2.161e-04   1.184e-03    -3.665    -2.927     0.739
   CO2                    2.010e-04   1.071e-03    -3.697    -2.970     0.727
   NaHCO3                 1.924e-04   1.025e-03    -3.716    -2.989     0.727
   CaCO3                  1.044e-06   5.564e-06    -5.981    -5.255     0.727
   MgCO3                  4.389e-07   2.339e-06    -6.358    -5.631     0.727
   NaCO3-                 1.500e-07   8.221e-07    -6.824    -6.085     0.739
   CO3-2                  4.170e-08   4.676e-09    -7.380    -8.330    -0.950
Ca               4.655e-01
   Ca+2                   4.609e-01   7.084e-01    -0.336    -0.150     0.187
   CaHCO3+                3.015e-03   1.745e-03    -2.521    -2.758    -0.238
   CaSO4                  1.600e-03   8.528e-03    -2.796    -2.069     0.727
   CaCO3                  1.044e-06   5.564e-06    -5.981    -5.255     0.727
   CaHSO4+                1.766e-08   9.674e-08    -7.753    -7.014     0.739
   CaOH+                  8.693e-09   4.763e-08    -8.061    -7.322     0.739
Cl               6.642e+00
   Cl-                    6.642e+00   3.946e+00     0.822     0.596    -0.226
H(0)             0.000e+00
   H2                     0.000e+00   0.000e+00   -45.192   -44.465     0.727
Mg               1.609e-01
   Mg+2                   1.593e-01   5.242e-01    -0.798    -0.280     0.517
   MgSO4                  1.391e-03   7.415e-03    -2.857    -2.130     0.727
   MgHCO3+                2.161e-04   1.184e-03    -3.665    -2.927     0.739
   MgCO3                  4.389e-07   2.339e-06    -6.358    -5.631     0.727
   MgOH+                  1.407e-07   7.712e-07    -6.852    -6.113     0.739
Na               5.402e+00
   Na+                    5.401e+00   9.442e+00     0.732     0.975     0.243
   NaSO4-                 5.211e-04   2.855e-03    -3.283    -2.544     0.739
   NaHCO3                 1.924e-04   1.025e-03    -3.716    -2.989     0.727
   NaCO3-                 1.500e-07   8.221e-07    -6.824    -6.085     0.739
   NaOH                   4.743e-09   2.528e-08    -8.324    -7.597     0.727
O(0)             8.211e-05
   O2                     4.106e-05   2.188e-04    -4.387    -3.660     0.727
S(-2)            0.000e+00
   H2S                    0.000e+00   0.000e+00  -140.620  -139.894     0.727
   HS-                    0.000e+00   0.000e+00  -140.787  -141.122    -0.335
   S-2                    0.000e+00   0.000e+00  -147.315  -148.327    -1.012
S(6)             4.725e-03
   CaSO4                  1.600e-03   8.528e-03    -2.796    -2.069     0.727
   MgSO4                  1.391e-03   7.415e-03    -2.857    -2.130     0.727
   SO4-2                  1.212e-03   6.034e-05    -2.916    -4.219    -1.303
   NaSO4-                 5.211e-04   2.855e-03    -3.283    -2.544     0.739
   CaHSO4+                1.766e-08   9.674e-08    -7.753    -7.014     0.739
   HSO4-                  2.073e-09   1.136e-08    -8.683    -7.945     0.739

------------------------------Saturation indices-------------------------------

	Phase               SI log IAP  log KT

	Anhydrite        -0.01   -4.37   -4.36  CaSO4
	Aragonite        -0.14   -8.48   -8.34  CaCO3
	Calcite              0   -8.48   -8.48  CaCO3
	CH4(g)         -140.77 -143.63   -2.86  CH4
	CO2(g)           -1.50   -2.97   -1.47  CO2
	Dolomite             0  -17.09  -17.09  CaMg(CO3)2
	Gypsum               0   -4.58   -4.58  CaSO4:2H2O
	H2(g)           -41.32  -44.47   -3.15  H2
	H2O(g)           -1.62   -0.11    1.51  H2O
	H2S(g)         -138.90 -139.89   -1.00  H2S
	Halite           -0.01    1.57    1.58  NaCl
	O2(g)            -0.70   -3.66   -2.96  O2
	Sulfur         -103.46  -98.58    4.88  S

------------------
End of simulation.
------------------

------------------------------------
Reading input data for simulation 4.
------------------------------------

	USE solution 2
	EQUILIBRIUM_PHASES 2
	        Dolomite        0.0     1.6
	        Calcite         0.0     0.1
	SAVE solution 2
	END
-----------------------------------------
Beginning of batch-reaction calculations.
-----------------------------------------

Reaction step 1.

-------------------------------Phase assemblage--------------------------------

                                                      Moles in assemblage
Phase                  SI log IAP  log KT      Initial       Final       Delta

Calcite                 0   -8.48   -8.48    1.000e-01   1.002e-01   2.185e-04
Dolomite                0  -17.09  -17.09    1.600e+00   1.600e+00  -1.093e-04

-----------------------------Solution composition------------------------------

	Elements           Molality       Moles

	As                1.000e-08   1.000e-08
	C                 3.960e-03   3.960e-03
	Ca                4.654e-01   4.654e-01
	Cl                6.642e+00   6.642e+00
	Mg                1.610e-01   1.610e-01
	Na                5.402e+00   5.402e+00
	S                 4.725e-03   4.725e-03

----------------------------Description of solution----------------------------

                                       pH  =   5.713      Charge balance
                                       pe  =  14.945      Adjusted to redox equilibrium
                        Activity of water  =   0.785
                           Ionic strength  =   7.266e+00
                       Mass of water (kg)  =   1.000e+00
                 Total alkalinity (eq/kg)  =   3.758e-03
                       Total CO2 (mol/kg)  =   3.960e-03
                      Temperature (deg C)  =  25.000
                  Electrical balance (eq)  =   1.033e-12
 Percent error, 100*(Cat-|An|)/(Cat+|An|)  =      0
                               Iterations  =   2
                                  Total H  = 1.110162e+02
                                  Total O  = 5.553688e+01

----------------------------Distribution of species----------------------------

                                                   Log       Log         Log 
   Species                 Molality    Activity  Molality  Activity     Gamma

   H+                     2.754e-06   1.936e-06    -5.560    -5.713    -0.153
   OH-                    8.776e-09   4.057e-09    -8.057    -8.392    -0.335
   H2O                    5.551e+01   7.846e-01     1.744    -0.105         0
As               1.000e-08
   H2AsO4-                9.993e-09   5.476e-08    -8.000    -7.262     0.739
   H3AsO4                 3.457e-12   1.842e-11   -11.461   -10.735     0.727
   HAsO4-2                3.441e-12   3.101e-09   -11.463    -8.508     2.955
   AsO4-3                 1.138e-21   5.066e-15   -20.944   -14.295     6.649
C(-4)            0.000e+00
   CH4                    0.000e+00   0.000e+00  -144.357  -143.631     0.727
C(4)             3.960e-03
   CaHCO3+                3.015e-03   1.745e-03    -2.521    -2.758    -0.238
   HCO3-                  3.337e-04   1.931e-04    -3.477    -3.714    -0.238
   MgHCO3+                2.163e-04   1.185e-03    -3.665    -2.926     0.739
   CO2                    2.010e-04   1.071e-03    -3.697    -2.970     0.727
   NaHCO3                 1.924e-04   1.025e-03    -3.716    -2.989     0.727
   CaCO3                  1.044e-06   5.565e-06    -5.981    -5.255     0.727
   MgCO3                  4.394e-07   2.341e-06    -6.357    -5.631     0.727
   NaCO3-                 1.501e-07   8.224e-07    -6.824    -6.085     0.739
   CO3-2                  4.171e-08   4.678e-09    -7.380    -8.330    -0.950
Ca               4.654e-01
   Ca+2                   4.608e-01   7.082e-01    -0.337    -0.150     0.187
   CaHCO3+                3.015e-03   1.745e-03    -2.521    -2.758    -0.238
   CaSO4                  1.600e-03   8.525e-03    -2.796    -2.069     0.727
   CaCO3                  1.044e-06   5.565e-06    -5.981    -5.255     0.727
   CaHSO4+                1.764e-08   9.668e-08    -7.753    -7.015     0.739
   CaOH+                  8.693e-09   4.763e-08    -8.061    -7.322     0.739
Cl               6.642e+00
   Cl-                    6.642e+00   3.946e+00     0.822     0.596    -0.226
H(0)             0.000e+00
   H2                     0.000e+00   0.000e+00   -45.192   -44.465     0.727
Mg               1.610e-01
   Mg+2                   1.594e-01   5.246e-01    -0.798    -0.280     0.517
   MgSO4                  1.392e-03   7.419e-03    -2.856    -2.130     0.727
   MgHCO3+                2.163e-04   1.185e-03    -3.665    -2.926     0.739
   MgCO3                  4.394e-07   2.341e-06    -6.357    -5.631     0.727
   MgOH+                  1.409e-07   7.719e-07    -6.851    -6.112     0.739
Na               5.402e+00
   Na+                    5.401e+00   9.442e+00     0.732     0.975     0.243
   NaSO4-                 5.210e-04   2.855e-03    -3.283    -2.544     0.739
   NaHCO3                 1.924e-04   1.025e-03    -3.716    -2.989     0.727
   NaCO3-                 1.501e-07   8.224e-07    -6.824    -6.085     0.739
   NaOH                   4.744e-09   2.528e-08    -8.324    -7.597     0.727
O(0)             8.211e-05
   O2                     4.106e-05   2.188e-04    -4.387    -3.660     0.727
S(-2)            0.000e+00
   H2S                    0.000e+00   0.000e+00  -140.621  -139.894     0.727
   HS-                    0.000e+00   0.000e+00  -140.788  -141.123    -0.335
   S-2                    0.000e+00   0.000e+00  -147.315  -148.327    -1.012
S(6)             4.725e-03
   CaSO4                  1.600e-03   8.525e-03    -2.796    -2.069     0.727
   MgSO4                  1.392e-03   7.419e-03    -2.856    -2.130     0.727
   SO4-2                  1.212e-03   6.033e-05    -2.917    -4.219    -1.303
   NaSO4-                 5.210e-04   2.855e-03    -3.283    -2.544     0.739
   CaHSO4+                1.764e-08   9.668e-08    -7.753    -7.015     0.739
   HSO4-                  2.072e-09   1.136e-08    -8.684    -7.945     0.739

------------------------------Saturation indices-------------------------------

	Phase               SI log IAP  log KT

	Anhydrite        -0.01   -4.37   -4.36  CaSO4
	Aragonite        -0.14   -8.48   -8.34  CaCO3
	Calcite              0   -8.48   -8.48  CaCO3
	CH4(g)         -140.77 -143.63   -2.86  CH4
	CO2(g)           -1.50   -2.97   -1.47  CO2
	Dolomite             0  -17.09  -17.09  CaMg(CO3)2
	Gypsum               0   -4.58   -4.58  CaSO4:2H2O
	H2(g)           -41.32  -44.47   -3.15  H2
	H2O(g)           -1.62   -0.11    1.51  H2O
	H2S(g)         -138.90 -139.89   -1.00  H2S
	Halite           -0.01    1.57    1.58  NaCl
	O2(g)            -0.70   -3.66   -2.96  O2
	Sulfur         -103.46  -98.58    4.88  S

------------------
End of simulation.
------------------

------------------------------------
Reading input data for simulation 5.
------------------------------------

	EXCHANGE 2
	        equilibrate with solution 2
	        X       0.5
	SURFACE 2
	        equilibrate solution 2
	        SurfOH          0.14     600.    30.
	END
-------------------------------------------------------
Beginning of initial exchange-composition calculations.
-------------------------------------------------------

Exchange 2.	

X                5.000e-01 mol

	                               Equiv-    Equivalent      Log 
	Species             Moles      alents      Fraction     Gamma

	NaX               4.507e-01   4.507e-01   9.014e-01     0.243
	CaX2              2.024e-02   4.048e-02   8.096e-02     0.187
	MgX2              4.418e-03   8.836e-03   1.767e-02     0.517

------------------------------------------------------
Beginning of initial surface-composition calculations.
------------------------------------------------------

Surface 2.	

Surf          
	  8.470e-02  Surface charge, eq
	  4.541e-01  sigma, C/m**2
	  5.950e-02  psi, V
	 -2.316e+00  -F*psi/RT
	  9.866e-02  exp(-F*psi/RT)
	  6.000e+02  specific area, m**2/g
	  1.800e+04  m**2 for   3.000e+01 g


Surf          
	  1.400e-01  moles
	                                   Mole                     Log
	Species               Moles    Fraction    Molality    Molality

	SurfOH2+          1.039e-01       0.742   1.039e-01      -0.984
	SurfOH            2.789e-02       0.199   2.789e-02      -1.555
	SurfOHAsO4-3      5.593e-03       0.040   5.593e-03      -2.252
	SurfHAsO4-        2.213e-03       0.016   2.213e-03      -2.655
	SurfH2AsO4        2.668e-04       0.002   2.668e-04      -3.574
	SurfO-            1.715e-04       0.001   1.715e-04      -3.766

------------------
End of simulation.
------------------

------------------------------------
Reading input data for simulation 6.
------------------------------------

	SELECTED_OUTPUT
	        file print_check_transient.dummy.sel
	        reset false
	        ph
	USER_PUNCH
	heading        Ca      Mg      Na      Cl      C(4)    SO4     As
	10 PUNCH TOT("Ca")*1e3*40.08
	20 PUNCH TOT("Mg")*1e3*24.312
	30 PUNCH TOT("Na")*1e3*23.
	40 PUNCH TOT("Cl")*1e3*35.45
	50 PUNCH TOT("C(4)")*1e3*61.   # as HCO3-
	60 PUNCH TOT("S(6)")*1e3*96.   # as SO4
	70 PUNCH TOT("As")*1e6*74.296  # ug/L
	END
------------------
End of simulation.
------------------

------------------------------------
Reading input data for simulation 7.
------------------------------------

List of Components:
	1	H
	2	O
	3	As
	4	C
	5	Ca
	6	Cl
	7	Mg
	8	Na
	9	S
	10	Charge
List of master species:
	1	As
	2	C(-4)
	3	C(4)
	4	Ca
	5	Cl
	6	Mg
	7	Na
	8	S(-2)
	9	S(6)
Time 15000. Cell 1: x=              0	y=              0	z=              0
Using solution 1.
Using exchange 1
Using surface 1.
Using pure phase assemblage 1.

-------------------------------Phase assemblage--------------------------------

                                                      Moles in assemblage
Phase                  SI log IAP  log KT      Initial       Final       Delta

Calcite                 0   -8.48   -8.48    1.015e-01   1.020e-01   4.587e-04
Dolomite                0  -17.09  -17.09    1.599e+00   1.599e+00  -1.713e-04

------------------------------Surface composition------------------------------

Surf          
	  8.536e-02  Surface charge, eq
	  4.576e-01  sigma, C/m**2
	  6.142e-02  psi, V
	 -2.391e+00  -F*psi/RT
	  9.157e-02  exp(-F*psi/RT)
	  6.000e+02  specific area, m**2/g
	  1.800e+04  m**2 for   3.000e+01 g


Surf          
	  1.400e-01  moles
	                                   Mole                     Log
	Species               Moles    Fraction    Molality    Molality

	SurfOH2+          1.044e-01       0.746   1.044e-01      -0.981
	SurfOH            2.737e-02       0.195   2.737e-02      -1.563
	SurfOHAsO4-3      5.539e-03       0.040   5.539e-03      -2.257
	SurfHAsO4-        2.256e-03       0.016   2.256e-03      -2.647
	SurfH2AsO4        2.784e-04       0.002   2.784e-04      -3.555
	SurfO-            1.644e-04       0.001   1.644e-04      -3.784

-----------------------------Exchange composition------------------------------

X                5.000e-01 mol

	                               Equiv-    Equivalent      Log 
	Species             Moles      alents      Fraction     Gamma

	NaX               4.483e-01   4.483e-01   8.966e-01     0.206
	CaX2              2.104e-02   4.209e-02   8.418e-02     0.107
	MgX2              4.803e-03   9.606e-03   1.921e-02     0.419

-----------------------------Solution composition------------------------------

	Elements           Molality       Moles

	As                1.172e-08   1.172e-08
	C                 4.714e-03   4.714e-03
	Ca                4.239e-01   4.239e-01
	Cl                6.167e+00   6.167e+00
	Mg                1.531e-01   1.531e-01
	Na                5.026e+00   5.026e+00
	S                 4.404e-03   4.404e-03

----------------------------Description of solution----------------------------

                                       pH  =   5.670      Charge balance
                                       pe  =  14.999      Adjusted to redox equilibrium
                        Activity of water  =   0.800
                           Ionic strength  =   6.742e+00
                       Mass of water (kg)  =   1.000e+00
                 Total alkalinity (eq/kg)  =   4.355e-03
                       Total CO2 (mol/kg)  =   4.714e-03
                      Temperature (deg C)  =  25.000
                  Electrical balance (eq)  =   6.229e-04
 Percent error, 100*(Cat-|An|)/(Cat+|An|)  =   0.01
                               Iterations  =   4
                                  Total H  = 1.110169e+02
                                  Total O  = 5.553779e+01

----------------------------Distribution of species----------------------------

                                                   Log       Log         Log 
   Species                 Molality    Activity  Molality  Activity     Gamma

   H+                     3.035e-06   2.136e-06    -5.518    -5.670    -0.152
   OH-                    8.050e-09   3.748e-09    -8.094    -8.426    -0.332
   H2O                    5.551e+01   7.999e-01     1.744    -0.097         0
As               1.172e-08
   H2AsO4-                1.170e-08   5.381e-08    -7.932    -7.269     0.662
   HAsO4-2                6.183e-12   2.762e-09   -11.209    -8.559     2.650
   H3AsO4                 4.229e-12   1.998e-11   -11.374   -10.699     0.674
   AsO4-3                 4.458e-21   4.088e-15   -20.351   -14.389     5.962
C(-4)            0.000e+00
   CH4                    0.000e+00   0.000e+00  -144.220  -143.546     0.674
C(4)             4.714e-03
   CaHCO3+                3.315e-03   1.925e-03    -2.479    -2.715    -0.236
   HCO3-                  4.842e-04   2.812e-04    -3.315    -3.551    -0.236
   CO2                    3.575e-04   1.689e-03    -3.447    -2.772     0.674
   MgHCO3+                2.845e-04   1.308e-03    -3.546    -2.883     0.662
   NaHCO3                 2.703e-04   1.277e-03    -3.568    -2.894     0.674
   CaCO3                  1.178e-06   5.565e-06    -5.929    -5.255     0.674
   MgCO3                  4.957e-07   2.341e-06    -6.305    -5.631     0.674
   NaCO3-                 2.018e-07   9.279e-07    -6.695    -6.033     0.662
   CO3-2                  5.427e-08   6.173e-09    -7.265    -8.209    -0.944
Ca               4.239e-01
   Ca+2                   4.192e-01   5.366e-01    -0.378    -0.270     0.107
   CaHCO3+                3.315e-03   1.925e-03    -2.479    -2.715    -0.236
   CaSO4                  1.426e-03   6.733e-03    -2.846    -2.172     0.674
   CaCO3                  1.178e-06   5.565e-06    -5.929    -5.255     0.674
   CaHSO4+                1.833e-08   8.427e-08    -7.737    -7.074     0.662
   CaOH+                  7.253e-09   3.334e-08    -8.139    -7.477     0.662
Cl               6.167e+00
   Cl-                    6.167e+00   3.624e+00     0.790     0.559    -0.231
H(0)             0.000e+00
   H2                     0.000e+00   0.000e+00   -45.164   -44.489     0.674
Mg               1.531e-01
   Mg+2                   1.516e-01   3.975e-01    -0.819    -0.401     0.419
   MgSO4                  1.241e-03   5.860e-03    -2.906    -2.232     0.674
   MgHCO3+                2.845e-04   1.308e-03    -3.546    -2.883     0.662
   MgCO3                  4.957e-07   2.341e-06    -6.305    -5.631     0.674
   MgOH+                  1.175e-07   5.403e-07    -6.930    -6.267     0.662
Na               5.026e+00
   Na+                    5.026e+00   8.072e+00     0.701     0.907     0.206
   NaSO4-                 5.534e-04   2.544e-03    -3.257    -2.594     0.662
   NaHCO3                 2.703e-04   1.277e-03    -3.568    -2.894     0.674
   NaCO3-                 2.018e-07   9.279e-07    -6.695    -6.033     0.662
   NaOH                   4.228e-09   1.997e-08    -8.374    -7.700     0.674
O(0)             1.075e-04
   O2                     5.376e-05   2.539e-04    -4.270    -3.595     0.674
S(-2)            0.000e+00
   H2S                    0.000e+00   0.000e+00  -140.594  -139.920     0.674
   HS-                    0.000e+00   0.000e+00  -140.859  -141.191    -0.332
   S-2                    0.000e+00   0.000e+00  -147.434  -148.439    -1.005
S(6)             4.404e-03
   CaSO4                  1.426e-03   6.733e-03    -2.846    -2.172     0.674
   MgSO4                  1.241e-03   5.860e-03    -2.906    -2.232     0.674
   SO4-2                  1.184e-03   6.289e-05    -2.927    -4.201    -1.275
   NaSO4-                 5.534e-04   2.544e-03    -3.257    -2.594     0.662
   CaHSO4+                1.833e-08   8.427e-08    -7.737    -7.074     0.662
   HSO4-                  2.841e-09   1.306e-08    -8.546    -7.884     0.662

------------------------------Saturation indices-------------------------------

	Phase               SI log IAP  log KT

	Anhydrite        -0.11   -4.47   -4.36  CaSO4
	Aragonite        -0.14   -8.48   -8.34  CaCO3
	Calcite              0   -8.48   -8.48  CaCO3
	CH4(g)         -140.69 -143.55   -2.86  CH4
	CO2(g)           -1.30   -2.77   -1.47  CO2
	Dolomite             0  -17.09  -17.09  CaMg(CO3)2
	Gypsum           -0.08   -4.67   -4.58  CaSO4:2H2O
	H2(g)           -41.34  -44.49   -3.15  H2
	H2O(g)           -1.61   -0.10    1.51  H2O
	H2S(g)         -138.92 -139.92   -1.00  H2S
	Halite           -0.12    1.47    1.58  NaCl
	O2(g)            -0.64   -3.60   -2.96  O2
	Sulfur         -103.46  -98.58    4.88  S

Time 15000. Cell 3: x=          12000	y=              0	z=              0
Using solution 3.
Using exchange 3
Using surface 3.
Using pure phase assemblage 3.

-------------------------------Phase assemblage--------------------------------

                                                      Moles in assemblage
Phase                  SI log IAP  log KT      Initial       Final       Delta

Calcite                 0   -8.48   -8.48    1.222e-01   1.236e-01   1.390e-03
Dolomite                0  -17.09  -17.09    1.587e+00   1.586e+00  -1.401e-03

------------------------------Surface composition------------------------------

Surf          
	  7.835e-02  Surface charge, eq
	  4.200e-01  sigma, C/m**2
	  7.431e-02  psi, V
	 -2.892e+00  -F*psi/RT
	  5.545e-02  exp(-F*psi/RT)
	  6.000e+02  specific area, m**2/g
	  1.800e+04  m**2 for   3.000e+01 g


Surf          
	  1.400e-01  moles
	                                   Mole                     Log
	Species               Moles    Fraction    Molality    Molality

	SurfOH2+          9.936e-02       0.710   9.934e-02      -1.003
	SurfOH            3.233e-02       0.231   3.232e-02      -1.490
	SurfOHAsO4-3      6.422e-03       0.046   6.421e-03      -2.192
	SurfHAsO4-        1.501e-03       0.011   1.501e-03      -2.824
	SurfO-            2.410e-04       0.002   2.409e-04      -3.618
	SurfH2AsO4        1.493e-04       0.001   1.493e-04      -3.826

-----------------------------Exchange composition------------------------------

X                5.000e-01 mol

	                               Equiv-    Equivalent      Log 
	Species             Moles      alents      Fraction     Gamma

	NaX               4.175e-01   4.175e-01   8.349e-01    -0.033
	CaX2              3.145e-02   6.290e-02   1.258e-01    -0.400
	MgX2              9.813e-03   1.963e-02   3.925e-02    -0.225

-----------------------------Solution composition------------------------------

	Elements           Molality       Moles

	As                1.456e-08   1.456e-08
	C                 2.234e-02   2.234e-02
	Ca                1.737e-01   1.737e-01
	Cl                2.908e+00   2.908e+00
	Mg                8.516e-02   8.517e-02
	Na                2.433e+00   2.433e+00
	S                 2.201e-03   2.201e-03

----------------------------Description of solution----------------------------

                                       pH  =   5.546      Charge balance
                                       pe  =  15.112      Adjusted to redox equilibrium
                        Activity of water  =   0.905
                           Ionic strength  =   3.181e+00
                       Mass of water (kg)  =   1.000e+00
                 Total alkalinity (eq/kg)  =   1.220e-02
                       Total CO2 (mol/kg)  =   2.234e-02
                      Temperature (deg C)  =  25.000
                  Electrical balance (eq)  =   2.606e-02
 Percent error, 100*(Cat-|An|)/(Cat+|An|)  =   0.44
                               Iterations  =   4
                                  Total H  = 1.110400e+02
                                  Total O  = 5.557987e+01

----------------------------Distribution of species----------------------------

                                                   Log       Log         Log 
   Species                 Molality    Activity  Molality  Activity     Gamma

   H+                     3.968e-06   2.843e-06    -5.401    -5.546    -0.145
   OH-                    6.325e-09   3.185e-09    -8.199    -8.497    -0.298
   H2O                    5.551e+01   9.045e-01     1.744    -0.044         0
As               1.456e-08
   H2AsO4-                1.437e-08   2.076e-08    -7.843    -7.683     0.160
   HAsO4-2                1.839e-10   8.007e-10    -9.736    -9.097     0.639
   H3AsO4                 4.929e-12   1.025e-11   -11.307   -10.989     0.318
   AsO4-3                 3.251e-17   8.907e-16   -16.488   -15.050     1.438
C(-4)            0.000e+00
   CH4                    0.000e+00   0.000e+00  -142.785  -142.467     0.318
C(4)             2.234e-02
   CO2                    1.014e-02   2.110e-02    -1.994    -1.676     0.318
   HCO3-                  4.936e-03   2.986e-03    -2.307    -2.525    -0.218
   CaHCO3+                4.235e-03   2.562e-03    -2.373    -2.591    -0.218
   NaHCO3                 1.817e-03   3.781e-03    -2.741    -2.422     0.318
   MgHCO3+                1.205e-03   1.740e-03    -2.919    -2.759     0.160
   CaCO3                  2.675e-06   5.565e-06    -5.573    -5.255     0.318
   NaCO3-                 1.430e-06   2.066e-06    -5.845    -5.685     0.160
   MgCO3                  1.126e-06   2.341e-06    -5.949    -5.631     0.318
   CO3-2                  3.677e-07   4.926e-08    -6.434    -7.308    -0.873
Ca               1.737e-01
   Ca+2                   1.690e-01   6.725e-02    -0.772    -1.172    -0.400
   CaHCO3+                4.235e-03   2.562e-03    -2.373    -2.591    -0.218
   CaSO4                  4.556e-04   9.478e-04    -3.341    -3.023     0.318
   CaCO3                  2.675e-06   5.565e-06    -5.573    -5.255     0.318
   CaHSO4+                1.093e-08   1.578e-08    -7.962    -7.802     0.160
   CaOH+                  2.458e-09   3.551e-09    -8.609    -8.450     0.160
Cl               2.908e+00
   Cl-                    2.908e+00   1.635e+00     0.464     0.213    -0.250
H(0)             0.000e+00
   H2                     0.000e+00   0.000e+00   -44.785   -44.467     0.318
Mg               8.516e-02
   Mg+2                   8.355e-02   4.981e-02    -1.078    -1.303    -0.225
   MgHCO3+                1.205e-03   1.740e-03    -2.919    -2.759     0.160
   MgSO4                  3.965e-04   8.249e-04    -3.402    -3.084     0.318
   MgCO3                  1.126e-06   2.341e-06    -5.949    -5.631     0.318
   MgOH+                  3.984e-08   5.755e-08    -7.400    -7.240     0.160
Na               2.433e+00
   Na+                    2.431e+00   2.252e+00     0.386     0.353    -0.033
   NaHCO3                 1.817e-03   3.781e-03    -2.741    -2.422     0.318
   NaSO4-                 5.519e-04   7.972e-04    -3.258    -3.098     0.160
   NaCO3-                 1.430e-06   2.066e-06    -5.845    -5.685     0.160
   NaOH                   2.276e-09   4.734e-09    -8.643    -8.325     0.318
O(0)             2.818e-04
   O2                     1.409e-04   2.931e-04    -3.851    -3.533     0.318
S(-2)            0.000e+00
   H2S                    0.000e+00   0.000e+00  -140.064  -139.746     0.318
   HS-                    0.000e+00   0.000e+00  -140.844  -141.141    -0.298
   S-2                    0.000e+00   0.000e+00  -147.588  -148.513    -0.925
S(6)             2.201e-03
   SO4-2                  7.969e-04   7.064e-05    -3.099    -4.151    -1.052
   NaSO4-                 5.519e-04   7.972e-04    -3.258    -3.098     0.160
   CaSO4                  4.556e-04   9.478e-04    -3.341    -3.023     0.318
   MgSO4                  3.965e-04   8.249e-04    -3.402    -3.084     0.318
   HSO4-                  1.351e-08   1.952e-08    -7.869    -7.709     0.160
   CaHSO4+                1.093e-08   1.578e-08    -7.962    -7.802     0.160

------------------------------Saturation indices-------------------------------

	Phase               SI log IAP  log KT

	Anhydrite        -0.96   -5.32   -4.36  CaSO4
	Aragonite        -0.14   -8.48   -8.34  CaCO3
	Calcite              0   -8.48   -8.48  CaCO3
	CH4(g)         -139.61 -142.47   -2.86  CH4
	CO2(g)           -0.21   -1.68   -1.47  CO2
	Dolomite             0  -17.09  -17.09  CaMg(CO3)2
	Gypsum           -0.83   -5.41   -4.58  CaSO4:2H2O
	H2(g)           -41.32  -44.47   -3.15  H2
	H2O(g)           -1.55   -0.04    1.51  H2O
	H2S(g)         -138.75 -139.75   -1.00  H2S
	Halite           -1.02    0.57    1.58  NaCl
	O2(g)            -0.57   -3.53   -2.96  O2
	Sulfur         -103.31  -98.43    4.88  S

Time 15000. Cell 5: x=          24000	y=              0	z=              0
Using solution 5.
Using exchange 5
Using surface 5.
Using pure phase assemblage 5.

-------------------------------Phase assemblage--------------------------------

                                                      Moles in assemblage
Phase                  SI log IAP  log KT      Initial       Final       Delta

Calcite                 0   -8.48   -8.48    1.397e-01   1.391e-01  -5.679e-04
Dolomite                0  -17.09  -17.09    1.563e+00   1.562e+00  -9.553e-04

------------------------------Surface composition------------------------------

Surf          
	  2.606e-02  Surface charge, eq
	  1.397e-01  sigma, C/m**2
	  6.876e-02  psi, V
	 -2.677e+00  -F*psi/RT
	  6.880e-02  exp(-F*psi/RT)
	  6.000e+02  specific area, m**2/g
	  1.800e+04  m**2 for   3.000e+01 g


Surf          
	  1.400e-01  moles
	                                   Mole                     Log
	Species               Moles    Fraction    Molality    Molality

	SurfOH            7.671e-02       0.548   7.670e-02      -1.115
	SurfOH2+          5.266e-02       0.376   5.265e-02      -1.279
	SurfOHAsO4-3      7.986e-03       0.057   7.984e-03      -2.098
	SurfO-            2.560e-03       0.018   2.559e-03      -2.592
	SurfHAsO4-        8.546e-05       0.001   8.545e-05      -4.068
	SurfH2AsO4        1.899e-06           0   1.898e-06      -5.722

-----------------------------Exchange composition------------------------------

X                5.000e-01 mol

	                               Equiv-    Equivalent      Log 
	Species             Moles      alents      Fraction     Gamma

	NaX               3.158e-01   3.158e-01   6.315e-01    -0.148
	CaX2              6.494e-02   1.299e-01   2.598e-01    -0.576
	MgX2              2.717e-02   5.434e-02   1.087e-01    -0.528

-----------------------------Solution composition------------------------------

	Elements           Molality       Moles

	As                1.424e-09   1.425e-09
	C                 2.449e-02   2.450e-02
	Ca                1.599e-02   1.599e-02
	Cl                3.971e-01   3.972e-01
	Mg                1.060e-02   1.060e-02
	Na                3.860e-01   3.861e-01
	S                 5.034e-04   5.035e-04

----------------------------Description of solution----------------------------

                                       pH  =   6.291      Charge balance
                                       pe  =  14.323      Adjusted to redox equilibrium
                        Activity of water  =   0.986
                           Ionic strength  =   4.493e-01
                       Mass of water (kg)  =   1.000e+00
                 Total alkalinity (eq/kg)  =   1.513e-02
                       Total CO2 (mol/kg)  =   2.449e-02
                      Temperature (deg C)  =  25.000
                  Electrical balance (eq)  =   2.593e-02
 Percent error, 100*(Cat-|An|)/(Cat+|An|)  =   3.06
                               Iterations  =   4
                                  Total H  = 1.110433e+02
                                  Total O  = 5.558065e+01

----------------------------Distribution of species----------------------------

                                                   Log       Log         Log 
   Species                 Molality    Activity  Molality  Activity     Gamma

   H+                     6.662e-07   5.118e-07    -6.176    -6.291    -0.115
   OH-                    3.007e-08   1.929e-08    -7.522    -7.715    -0.193
   H2O                    5.551e+01   9.858e-01     1.744    -0.006         0
As               1.424e-09
   H2AsO4-                9.206e-10   6.735e-10    -9.036    -9.172    -0.136
   HAsO4-2                5.038e-10   1.443e-10    -9.298    -9.841    -0.543
   H3AsO4                 5.401e-14   5.990e-14   -13.268   -13.223     0.045
   AsO4-3                 1.485e-14   8.917e-16   -13.828   -15.050    -1.222
C(-4)            0.000e+00
   CH4                    0.000e+00   0.000e+00  -142.536  -142.491     0.045
C(4)             2.449e-02
   HCO3-                  1.277e-02   8.916e-03    -1.894    -2.050    -0.156
   CO2                    9.383e-03   1.041e-02    -2.028    -1.983     0.045
   NaHCO3                 1.237e-03   1.372e-03    -2.908    -2.863     0.045
   CaHCO3+                6.605e-04   4.612e-04    -3.180    -3.336    -0.156
   MgHCO3+                4.282e-04   3.133e-04    -3.368    -3.504    -0.136
   NaCO3-                 5.691e-06   4.163e-06    -5.245    -5.381    -0.136
   CaCO3                  5.018e-06   5.565e-06    -5.299    -5.255     0.045
   CO3-2                  3.438e-06   8.170e-07    -5.464    -6.088    -0.624
   MgCO3                  2.111e-06   2.341e-06    -5.675    -5.631     0.045
Ca               1.599e-02
   Ca+2                   1.527e-02   4.054e-03    -1.816    -2.392    -0.576
   CaHCO3+                6.605e-04   4.612e-04    -3.180    -3.336    -0.156
   CaSO4                  4.651e-05   5.157e-05    -4.332    -4.288     0.045
   CaCO3                  5.018e-06   5.565e-06    -5.299    -5.255     0.045
   CaOH+                  1.772e-09   1.296e-09    -8.752    -8.887    -0.136
   CaHSO4+                2.114e-10   1.546e-10    -9.675    -9.811    -0.136
Cl               3.971e-01
   Cl-                    3.971e-01   2.587e-01    -0.401    -0.587    -0.186
H(0)             0.000e+00
   H2                     0.000e+00   0.000e+00   -44.423   -44.378     0.045
Mg               1.060e-02
   Mg+2                   1.013e-02   3.003e-03    -1.994    -2.522    -0.528
   MgHCO3+                4.282e-04   3.133e-04    -3.368    -3.504    -0.136
   MgSO4                  4.047e-05   4.488e-05    -4.393    -4.348     0.045
   MgCO3                  2.111e-06   2.341e-06    -5.675    -5.631     0.045
   MgOH+                  2.871e-08   2.101e-08    -7.542    -7.678    -0.136
Na               3.860e-01
   Na+                    3.847e-01   2.737e-01    -0.415    -0.563    -0.148
   NaHCO3                 1.237e-03   1.372e-03    -2.908    -2.863     0.045
   NaSO4-                 1.195e-04   8.744e-05    -3.923    -4.058    -0.136
   NaCO3-                 5.691e-06   4.163e-06    -5.245    -5.381    -0.136
   NaOH                   3.141e-09   3.483e-09    -8.503    -8.458     0.045
O(0)             4.162e-04
   O2                     2.081e-04   2.308e-04    -3.682    -3.637     0.045
S(-2)            0.000e+00
   H2S                    0.000e+00   0.000e+00  -141.117  -141.072     0.045
   HS-                    0.000e+00   0.000e+00  -141.530  -141.723    -0.193
   S-2                    0.000e+00   0.000e+00  -147.700  -148.350    -0.650
S(6)             5.034e-04
   SO4-2                  2.969e-04   6.375e-05    -3.527    -4.195    -0.668
   NaSO4-                 1.195e-04   8.744e-05    -3.923    -4.058    -0.136
   CaSO4                  4.651e-05   5.157e-05    -4.332    -4.288     0.045
   MgSO4                  4.047e-05   4.488e-05    -4.393    -4.348     0.045
   HSO4-                  4.336e-09   3.172e-09    -8.363    -8.499    -0.136
   CaHSO4+                2.114e-10   1.546e-10    -9.675    -9.811    -0.136

------------------------------Saturation indices-------------------------------

	Phase               SI log IAP  log KT

	Anhydrite        -2.23   -6.59   -4.36  CaSO4
	Aragonite        -0.14   -8.48   -8.34  CaCO3
	Calcite              0   -8.48   -8.48  CaCO3
	CH4(g)         -139.63 -142.49   -2.86  CH4
	CO2(g)           -0.51   -1.98   -1.47  CO2
	Dolomite             0  -17.09  -17.09  CaMg(CO3)2
	Gypsum           -2.02   -6.60   -4.58  CaSO4:2H2O
	H2(g)           -41.23  -44.38   -3.15  H2
	H2O(g)           -1.52   -0.01    1.51  H2O
	H2S(g)         -140.08 -141.07   -1.00  H2S
	Halite           -2.73   -1.15    1.58  NaCl
	O2(g)            -0.68   -3.64   -2.96  O2
	Sulfur         -104.73  -99.84    4.88  S

Time 15000. Cell 7: x=          36000	y=              0	z=              0
Using solution 7.
Using exchange 7
Using surface 7.
Using pure phase assemblage 7.

-------------------------------Phase assemblage--------------------------------

                                                      Moles in assemblage
Phase                  SI log IAP  log KT      Initial       Final       Delta

Calcite                 0   -8.48   -8.48    1.366e-01   1.361e-01  -4.783e-04
Dolomite                0  -17.09  -17.09    1.552e+00   1.552e+00  -4.020e-04

------------------------------Surface composition------------------------------

Surf          
	  1.025e-03  Surface charge, eq
	  5.494e-03  sigma, C/m**2
	  1.193e-02  psi, V
	 -4.642e-01  -F*psi/RT
	  6.286e-01  exp(-F*psi/RT)
	  6.000e+02  specific area, m**2/g
	  1.800e+04  m**2 for   3.000e+01 g


Surf          
	  1.400e-01  moles
	                                   Mole                     Log
	Species               Moles    Fraction    Molality    Molality

	SurfOH            9.393e-02       0.671   9.393e-02      -1.027
	SurfOH2+          3.160e-02       0.226   3.160e-02      -1.500
	SurfOHAsO4-3      8.052e-03       0.058   8.052e-03      -2.094
	SurfO-            6.397e-03       0.046   6.397e-03      -2.194
	SurfHAsO4-        2.043e-05           0   2.043e-05      -4.690
	SurfH2AsO4        2.224e-07           0   2.224e-07      -6.653

-----------------------------Exchange composition------------------------------

X                5.000e-01 mol

	                               Equiv-    Equivalent      Log 
	Species             Moles      alents      Fraction     Gamma

	NaX               2.473e-01   2.473e-01   4.945e-01    -0.078
	CaX2              8.667e-02   1.733e-01   3.467e-01    -0.300
	MgX2              3.970e-02   7.940e-02   1.588e-01    -0.291

-----------------------------Solution composition------------------------------

	Elements           Molality       Moles

	As                1.150e-08   1.150e-08
	C                 1.336e-02   1.336e-02
	Ca                4.091e-04   4.091e-04
	Cl                2.317e-02   2.317e-02
	Mg                2.947e-04   2.947e-04
	Na                4.083e-02   4.082e-02
	S                 2.506e-04   2.506e-04

----------------------------Description of solution----------------------------

                                       pH  =   7.562      Charge balance
                                       pe  =  13.044      Adjusted to redox equilibrium
                        Activity of water  =   0.999
                           Ionic strength  =   3.993e-02
                       Mass of water (kg)  =   1.000e+00
                 Total alkalinity (eq/kg)  =   1.278e-02
                       Total CO2 (mol/kg)  =   1.336e-02
                      Temperature (deg C)  =  25.000
                  Electrical balance (eq)  =   5.778e-03
 Percent error, 100*(Cat-|An|)/(Cat+|An|)  =   7.40
                               Iterations  =   4
                                  Total H  = 1.110242e+02
                                  Total O  = 5.554664e+01

----------------------------Distribution of species----------------------------

                                                   Log       Log         Log 
   Species                 Molality    Activity  Molality  Activity     Gamma

   OH-                    4.407e-07   3.643e-07    -6.356    -6.439    -0.083
   H+                     3.180e-08   2.745e-08    -7.498    -7.562    -0.064
   H2O                    5.551e+01   9.987e-01     1.744    -0.001         0
As               1.150e-08
   HAsO4-2                1.004e-08   4.861e-09    -7.998    -8.313    -0.315
   H2AsO4-                1.459e-09   1.217e-09    -8.836    -8.915    -0.079
   AsO4-3                 2.863e-12   5.601e-13   -11.543   -12.252    -0.708
   H3AsO4                 5.750e-15   5.803e-15   -14.240   -14.236     0.004
C(-4)            0.000e+00
   CH4                    0.000e+00   0.000e+00  -143.650  -143.646     0.004
C(4)             1.336e-02
   HCO3-                  1.242e-02   1.045e-02    -1.906    -1.981    -0.075
   CO2                    6.395e-04   6.454e-04    -3.194    -3.190     0.004
   NaHCO3                 1.976e-04   1.994e-04    -3.704    -3.700     0.004
   CO3-2                  3.566e-05   1.785e-05    -4.448    -4.748    -0.301
   CaHCO3+                2.941e-05   2.473e-05    -4.532    -4.607    -0.075
   MgHCO3+                2.014e-05   1.680e-05    -4.696    -4.775    -0.079
   NaCO3-                 1.353e-05   1.128e-05    -4.869    -4.948    -0.079
   CaCO3                  5.514e-06   5.565e-06    -5.259    -5.255     0.004
   MgCO3                  2.320e-06   2.341e-06    -5.635    -5.631     0.004
Ca               4.091e-04
   Ca+2                   3.702e-04   1.856e-04    -3.432    -3.731    -0.300
   CaHCO3+                2.941e-05   2.473e-05    -4.532    -4.607    -0.075
   CaCO3                  5.514e-06   5.565e-06    -5.259    -5.255     0.004
   CaSO4                  3.989e-06   4.026e-06    -5.399    -5.395     0.004
   CaOH+                  1.343e-09   1.121e-09    -8.872    -8.951    -0.079
   CaHSO4+                7.759e-13   6.472e-13   -12.110   -12.189    -0.079
Cl               2.317e-02
   Cl-                    2.317e-02   1.918e-02    -1.635    -1.717    -0.082
H(0)             0.000e+00
   H2                     0.000e+00   0.000e+00   -44.366   -44.362     0.004
Mg               2.947e-04
   Mg+2                   2.688e-04   1.375e-04    -3.571    -3.862    -0.291
   MgHCO3+                2.014e-05   1.680e-05    -4.696    -4.775    -0.079
   MgSO4                  3.471e-06   3.503e-06    -5.460    -5.456     0.004
   MgCO3                  2.320e-06   2.341e-06    -5.635    -5.631     0.004
   MgOH+                  2.177e-08   1.816e-08    -7.662    -7.741    -0.079
Na               4.083e-02
   Na+                    4.059e-02   3.395e-02    -1.392    -1.469    -0.078
   NaHCO3                 1.976e-04   1.994e-04    -3.704    -3.700     0.004
   NaSO4-                 2.217e-05   1.850e-05    -4.654    -4.733    -0.079
   NaCO3-                 1.353e-05   1.128e-05    -4.869    -4.948    -0.079
   NaOH                   8.087e-09   8.162e-09    -8.092    -8.088     0.004
O(0)             4.362e-04
   O2                     2.181e-04   2.201e-04    -3.661    -3.657     0.004
S(-2)            0.000e+00
   HS-                    0.000e+00   0.000e+00  -142.638  -142.721    -0.083
   H2S                    0.000e+00   0.000e+00  -143.344  -143.340     0.004
   S-2                    0.000e+00   0.000e+00  -147.771  -148.077    -0.307
S(6)             2.506e-04
   SO4-2                  2.210e-04   1.087e-04    -3.656    -3.964    -0.308
   NaSO4-                 2.217e-05   1.850e-05    -4.654    -4.733    -0.079
   CaSO4                  3.989e-06   4.026e-06    -5.399    -5.395     0.004
   MgSO4                  3.471e-06   3.503e-06    -5.460    -5.456     0.004
   HSO4-                  3.477e-10   2.901e-10    -9.459    -9.537    -0.079
   CaHSO4+                7.759e-13   6.472e-13   -12.110   -12.189    -0.079

------------------------------Saturation indices-------------------------------

	Phase               SI log IAP  log KT

	Anhydrite        -3.33   -7.70   -4.36  CaSO4
	Aragonite        -0.14   -8.48   -8.34  CaCO3
	Calcite              0   -8.48   -8.48  CaCO3
	CH4(g)         -140.79 -143.65   -2.86  CH4
	CO2(g)           -1.72   -3.19   -1.47  CO2
	Dolomite             0  -17.09  -17.09  CaMg(CO3)2
	Gypsum           -3.12   -7.70   -4.58  CaSO4:2H2O
	H2(g)           -41.21  -44.36   -3.15  H2
	H2O(g)           -1.51       0    1.51  H2O
	H2S(g)         -142.34 -143.34   -1.00  H2S
	Halite           -4.77   -3.19    1.58  NaCl
	O2(g)            -0.70   -3.66   -2.96  O2
	Sulfur         -107.01 -102.13    4.88  S

Time 15000. Cell 9: x=          48000	y=              0	z=              0
Using solution 9.
Using exchange 9
Using surface 9.
Using pure phase assemblage 9.

-------------------------------Phase assemblage--------------------------------

                                                      Moles in assemblage
Phase                  SI log IAP  log KT      Initial       Final       Delta

Calcite                 0   -8.48   -8.48    1.347e-01   1.343e-01  -4.824e-04
Dolomite                0  -17.09  -17.09    1.550e+00   1.550e+00  -1.332e-04

------------------------------Surface composition------------------------------

Surf          
	 -1.798e-03  Surface charge, eq
	 -9.637e-03  sigma, C/m**2
	 -3.339e-02  psi, V
	  1.300e+00  -F*psi/RT
	  3.668e+00  exp(-F*psi/RT)
	  6.000e+02  specific area, m**2/g
	  1.800e+04  m**2 for   3.000e+01 g


Surf          
	  1.400e-01  moles
	                                   Mole                     Log
	Species               Moles    Fraction    Molality    Molality

	SurfOH            9.539e-02       0.681   9.539e-02      -1.020
	SurfOH2+          2.946e-02       0.210   2.946e-02      -1.531
	SurfOHAsO4-3      8.055e-03       0.058   8.056e-03      -2.094
	SurfO-            7.076e-03       0.051   7.076e-03      -2.150
	SurfHAsO4-        1.721e-05           0   1.721e-05      -4.764
	SurfH2AsO4        1.720e-07           0   1.720e-07      -6.764

-----------------------------Exchange composition------------------------------

X                5.000e-01 mol

	                               Equiv-    Equivalent      Log 
	Species             Moles      alents      Fraction     Gamma

	NaX               2.230e-01   2.230e-01   4.461e-01    -0.051
	CaX2              9.463e-02   1.893e-01   3.785e-01    -0.199
	MgX2              4.385e-02   8.771e-02   1.754e-01    -0.195

-----------------------------Solution composition------------------------------

	Elements           Molality       Moles

	As                2.476e-07   2.476e-07
	C                 9.621e-03   9.621e-03
	Ca                6.906e-05   6.905e-05
	Cl                2.673e-03   2.673e-03
	Mg                4.892e-05   4.892e-05
	Na                1.397e-02   1.397e-02
	S                 2.368e-04   2.368e-04

----------------------------Description of solution----------------------------

                                       pH  =   8.365      Charge balance
                                       pe  =  12.241      Adjusted to redox equilibrium
                        Activity of water  =   1.000
                           Ionic strength  =   1.389e-02
                       Mass of water (kg)  =   1.000e+00
                 Total alkalinity (eq/kg)  =   9.718e-03
                       Total CO2 (mol/kg)  =   9.621e-03
                      Temperature (deg C)  =  25.000
                  Electrical balance (eq)  =   1.345e-03
 Percent error, 100*(Cat-|An|)/(Cat+|An|)  =   5.01
                               Iterations  =  14
                                  Total H  = 1.110198e+02
                                  Total O  = 5.553539e+01

----------------------------Distribution of species----------------------------

                                                   Log       Log         Log 
   Species                 Molality    Activity  Molality  Activity     Gamma

   OH-                    2.617e-06   2.317e-06    -5.582    -5.635    -0.053
   H+                     4.785e-09   4.318e-09    -8.320    -8.365    -0.045
   H2O                    5.551e+01   9.995e-01     1.744         0         0
As               2.476e-07
   HAsO4-2                2.407e-07   1.497e-07    -6.619    -6.825    -0.206
   H2AsO4-                6.638e-09   5.895e-09    -8.178    -8.230    -0.052
   AsO4-3                 3.191e-10   1.096e-10    -9.496    -9.960    -0.464
   H3AsO4                 4.410e-15   4.424e-15   -14.356   -14.354     0.001
C(-4)            0.000e+00
   CH4                    0.000e+00   0.000e+00  -144.548  -144.546     0.001
C(4)             9.621e-03
   HCO3-                  9.303e-03   8.298e-03    -2.031    -2.081    -0.050
   CO3-2                  1.424e-04   9.011e-05    -3.847    -4.045    -0.199
   CO2                    8.035e-05   8.060e-05    -4.095    -4.094     0.001
   NaHCO3                 5.743e-05   5.761e-05    -4.241    -4.239     0.001
   NaCO3-                 2.333e-05   2.072e-05    -4.632    -4.684    -0.052
   CaCO3                  5.547e-06   5.565e-06    -5.256    -5.255     0.001
   CaHCO3+                4.363e-06   3.892e-06    -5.360    -5.410    -0.050
   MgHCO3+                2.977e-06   2.644e-06    -5.526    -5.578    -0.052
   MgCO3                  2.334e-06   2.341e-06    -5.632    -5.631     0.001
Ca               6.906e-05
   Ca+2                   5.811e-05   3.676e-05    -4.236    -4.435    -0.199
   CaCO3                  5.547e-06   5.565e-06    -5.256    -5.255     0.001
   CaHCO3+                4.363e-06   3.892e-06    -5.360    -5.410    -0.050
   CaSO4                  1.034e-06   1.037e-06    -5.986    -5.984     0.001
   CaOH+                  1.590e-09   1.412e-09    -8.799    -8.850    -0.052
   CaHSO4+                2.955e-14   2.624e-14   -13.529   -13.581    -0.052
Cl               2.673e-03
   Cl-                    2.673e-03   2.368e-03    -2.573    -2.626    -0.053
H(0)             0.000e+00
   H2                     0.000e+00   0.000e+00   -44.362   -44.361     0.001
Mg               4.892e-05
   Mg+2                   4.268e-05   2.723e-05    -4.370    -4.565    -0.195
   MgHCO3+                2.977e-06   2.644e-06    -5.526    -5.578    -0.052
   MgCO3                  2.334e-06   2.341e-06    -5.632    -5.631     0.001
   MgSO4                  8.997e-07   9.026e-07    -6.046    -6.044     0.001
   MgOH+                  2.577e-08   2.288e-08    -7.589    -7.640    -0.052
Na               1.397e-02
   Na+                    1.388e-02   1.235e-02    -1.858    -1.908    -0.051
   NaHCO3                 5.743e-05   5.761e-05    -4.241    -4.239     0.001
   NaCO3-                 2.333e-05   2.072e-05    -4.632    -4.684    -0.052
   NaSO4-                 9.853e-06   8.750e-06    -5.006    -5.058    -0.052
   NaOH                   1.882e-08   1.888e-08    -7.725    -7.724     0.001
O(0)             4.373e-04
   O2                     2.187e-04   2.194e-04    -3.660    -3.659     0.001
S(-2)            0.000e+00
   HS-                    0.000e+00   0.000e+00  -143.354  -143.407    -0.053
   H2S                    0.000e+00   0.000e+00  -144.831  -144.830     0.001
   S-2                    0.000e+00   0.000e+00  -147.759  -147.960    -0.201
S(6)             2.368e-04
   SO4-2                  2.250e-04   1.414e-04    -3.648    -3.850    -0.202
   NaSO4-                 9.853e-06   8.750e-06    -5.006    -5.058    -0.052
   CaSO4                  1.034e-06   1.037e-06    -5.986    -5.984     0.001
   MgSO4                  8.997e-07   9.026e-07    -6.046    -6.044     0.001
   HSO4-                  6.686e-11   5.937e-11   -10.175   -10.226    -0.052
   CaHSO4+                2.955e-14   2.624e-14   -13.529   -13.581    -0.052

------------------------------Saturation indices-------------------------------

	Phase               SI log IAP  log KT

	Anhydrite        -3.92   -8.28   -4.36  CaSO4
	Aragonite        -0.14   -8.48   -8.34  CaCO3
	Calcite              0   -8.48   -8.48  CaCO3
	CH4(g)         -141.69 -144.55   -2.86  CH4
	CO2(g)           -2.63   -4.09   -1.47  CO2
	Dolomite             0  -17.09  -17.09  CaMg(CO3)2
	Gypsum           -3.70   -8.28   -4.58  CaSO4:2H2O
	H2(g)           -41.21  -44.36   -3.15  H2
	H2O(g)           -1.51       0    1.51  H2O
	H2S(g)         -143.83 -144.83   -1.00  H2S
	Halite           -6.12   -4.53    1.58  NaCl
	O2(g)            -0.70   -3.66   -2.96  O2
	Sulfur         -108.50 -103.62    4.88  S

Time 15000. Cell 17: x=              0	y=           6000	z=              0
Using solution 17.
Using exchange 17
Using surface 17.
Using pure phase assemblage 17.

-------------------------------Phase assemblage--------------------------------

                                                      Moles in assemblage
Phase                  SI log IAP  log KT      Initial       Final       Delta

Calcite                 0   -8.48   -8.48    1.020e-01   1.026e-01   5.774e-04
Dolomite                0  -17.09  -17.09    1.599e+00   1.599e+00  -2.189e-04

------------------------------Surface composition------------------------------

Surf          
	  8.555e-02  Surface charge, eq
	  4.586e-01  sigma, C/m**2
	  6.172e-02  psi, V
	 -2.403e+00  -F*psi/RT
	  9.049e-02  exp(-F*psi/RT)
	  6.000e+02  specific area, m**2/g
	  1.800e+04  m**2 for   3.000e+01 g


Surf          
	  1.400e-01  moles
	                                   Mole                     Log
	Species               Moles    Fraction    Molality    Molality

	SurfOH2+          1.045e-01       0.747   1.045e-01      -0.981
	SurfOH            2.722e-02       0.194   2.722e-02      -1.565
	SurfOHAsO4-3      5.518e-03       0.039   5.518e-03      -2.258
	SurfHAsO4-        2.272e-03       0.016   2.272e-03      -2.644
	SurfH2AsO4        2.824e-04       0.002   2.824e-04      -3.549
	SurfO-            1.624e-04       0.001   1.624e-04      -3.789

-----------------------------Exchange composition------------------------------

X                5.000e-01 mol

	                               Equiv-    Equivalent      Log 
	Species             Moles      alents      Fraction     Gamma

	NaX               4.480e-01   4.480e-01   8.960e-01     0.201
	CaX2              2.116e-02   4.231e-02   8.462e-02     0.097
	MgX2              4.855e-03   9.710e-03   1.942e-02     0.406

-----------------------------Solution composition------------------------------

	Elements           Molality       Moles

	As                1.201e-08   1.201e-08
	C                 4.858e-03   4.858e-03
	Ca                4.188e-01   4.188e-01
	Cl                6.107e+00   6.107e+00
	Mg                1.521e-01   1.521e-01
	Na                4.979e+00   4.979e+00
	S                 4.364e-03   4.364e-03

----------------------------Description of solution----------------------------

                                       pH  =   5.662      Charge balance
                                       pe  =  15.008      Adjusted to redox equilibrium
                        Activity of water  =   0.802
                           Ionic strength  =   6.677e+00
                       Mass of water (kg)  =   1.000e+00
                 Total alkalinity (eq/kg)  =   4.468e-03
                       Total CO2 (mol/kg)  =   4.858e-03
                      Temperature (deg C)  =  25.000
                  Electrical balance (eq)  =   7.628e-04
 Percent error, 100*(Cat-|An|)/(Cat+|An|)  =   0.01
                               Iterations  =   4
                                  Total H  = 1.110171e+02
                                  Total O  = 5.553805e+01

----------------------------Distribution of species----------------------------

                                                   Log       Log         Log 
   Species                 Molality    Activity  Molality  Activity     Gamma

   H+                     3.092e-06   2.177e-06    -5.510    -5.662    -0.152
   OH-                    7.913e-09   3.688e-09    -8.102    -8.433    -0.332
   H2O                    5.551e+01   8.018e-01     1.744    -0.096         0
As               1.201e-08
   H2AsO4-                1.200e-08   5.397e-08    -7.921    -7.268     0.653
   HAsO4-2                6.646e-12   2.719e-09   -11.177    -8.566     2.612
   H3AsO4                 4.388e-12   2.042e-11   -11.358   -10.690     0.668
   AsO4-3                 5.248e-21   3.950e-15   -20.280   -14.403     5.877
C(-4)            0.000e+00
   CH4                    0.000e+00   0.000e+00  -144.193  -143.525     0.668
C(4)             4.858e-03
   CaHCO3+                3.376e-03   1.962e-03    -2.472    -2.707    -0.236
   HCO3-                  5.107e-04   2.967e-04    -3.292    -3.528    -0.236
   CO2                    3.893e-04   1.811e-03    -3.410    -2.742     0.668
   MgHCO3+                2.963e-04   1.333e-03    -3.528    -2.875     0.653
   NaHCO3                 2.838e-04   1.320e-03    -3.547    -2.879     0.668
   CaCO3                  1.196e-06   5.565e-06    -5.922    -5.255     0.668
   MgCO3                  5.033e-07   2.341e-06    -6.298    -5.631     0.668
   NaCO3-                 2.094e-07   9.419e-07    -6.679    -6.026     0.653
   CO3-2                  5.609e-08   6.393e-09    -7.251    -8.194    -0.943
Ca               4.188e-01
   Ca+2                   4.141e-01   5.182e-01    -0.383    -0.286     0.097
   CaHCO3+                3.376e-03   1.962e-03    -2.472    -2.707    -0.236
   CaSO4                  1.404e-03   6.533e-03    -2.853    -2.185     0.668
   CaCO3                  1.196e-06   5.565e-06    -5.922    -5.255     0.668
   CaHSO4+                1.852e-08   8.330e-08    -7.732    -7.079     0.653
   CaOH+                  7.043e-09   3.168e-08    -8.152    -7.499     0.653
Cl               6.107e+00
   Cl-                    6.107e+00   3.585e+00     0.786     0.554    -0.231
H(0)             0.000e+00
   H2                     0.000e+00   0.000e+00   -45.159   -44.491     0.668
Mg               1.521e-01
   Mg+2                   1.506e-01   3.838e-01    -0.822    -0.416     0.406
   MgSO4                  1.222e-03   5.685e-03    -2.913    -2.245     0.668
   MgHCO3+                2.963e-04   1.333e-03    -3.528    -2.875     0.653
   MgCO3                  5.033e-07   2.341e-06    -6.298    -5.631     0.668
   MgOH+                  1.141e-07   5.133e-07    -6.943    -6.290     0.653
Na               4.979e+00
   Na+                    4.978e+00   7.912e+00     0.697     0.898     0.201
   NaSO4-                 5.572e-04   2.506e-03    -3.254    -2.601     0.653
   NaHCO3                 2.838e-04   1.320e-03    -3.547    -2.879     0.668
   NaCO3-                 2.094e-07   9.419e-07    -6.679    -6.026     0.653
   NaOH                   4.139e-09   1.926e-08    -8.383    -7.715     0.668
O(0)             1.107e-04
   O2                     5.535e-05   2.575e-04    -4.257    -3.589     0.668
S(-2)            0.000e+00
   H2S                    0.000e+00   0.000e+00  -140.581  -139.914     0.668
   HS-                    0.000e+00   0.000e+00  -140.862  -141.193    -0.332
   S-2                    0.000e+00   0.000e+00  -147.445  -148.449    -1.004
S(6)             4.364e-03
   CaSO4                  1.404e-03   6.533e-03    -2.853    -2.185     0.668
   MgSO4                  1.222e-03   5.685e-03    -2.913    -2.245     0.668
   SO4-2                  1.180e-03   6.319e-05    -2.928    -4.199    -1.271
   NaSO4-                 5.572e-04   2.506e-03    -3.254    -2.601     0.653
   CaHSO4+                1.852e-08   8.330e-08    -7.732    -7.079     0.653
   HSO4-                  2.973e-09   1.337e-08    -8.527    -7.874     0.653

------------------------------Saturation indices-------------------------------

	Phase               SI log IAP  log KT

	Anhydrite        -0.12   -4.48   -4.36  CaSO4
	Aragonite        -0.14   -8.48   -8.34  CaCO3
	Calcite              0   -8.48   -8.48  CaCO3
	CH4(g)         -140.67 -143.53   -2.86  CH4
	CO2(g)           -1.27   -2.74   -1.47  CO2
	Dolomite             0  -17.09  -17.09  CaMg(CO3)2
	Gypsum           -0.10   -4.68   -4.58  CaSO4:2H2O
	H2(g)           -41.34  -44.49   -3.15  H2
	H2O(g)           -1.61   -0.10    1.51  H2O
	H2S(g)         -138.92 -139.91   -1.00  H2S
	Halite           -0.13    1.45    1.58  NaCl
	O2(g)            -0.63   -3.59   -2.96  O2
	Sulfur         -103.45  -98.57    4.88  S

Time 15000. Cell 19: x=          12000	y=           6000	z=              0
Using solution 19.
Using exchange 19
Using surface 19.
Using pure phase assemblage 19.

-------------------------------Phase assemblage--------------------------------

                                                      Moles in assemblage
Phase                  SI log IAP  log KT      Initial       Final       Delta

Calcite                 0   -8.48   -8.48    1.279e-01   1.295e-01   1.648e-03
Dolomite                0  -17.09  -17.09    1.584e+00   1.582e+00  -1.573e-03

------------------------------Surface composition------------------------------

Surf          
	  7.634e-02  Surface charge, eq
	  4.092e-01  sigma, C/m**2
	  7.450e-02  psi, V
	 -2.900e+00  -F*psi/RT
	  5.503e-02  exp(-F*psi/RT)
	  6.000e+02  specific area, m**2/g
	  1.800e+04  m**2 for   3.000e+01 g


Surf          
	  1.400e-01  moles
	                                   Mole                     Log
	Species               Moles    Fraction    Molality    Molality

	SurfOH2+          9.775e-02       0.698   9.774e-02      -1.010
	SurfOH            3.391e-02       0.242   3.390e-02      -1.470
	SurfOHAsO4-3      6.598e-03       0.047   6.597e-03      -2.181
	SurfHAsO4-        1.349e-03       0.010   1.349e-03      -2.870
	SurfO-            2.694e-04       0.002   2.694e-04      -3.570
	SurfH2AsO4        1.258e-04       0.001   1.258e-04      -3.900

-----------------------------Exchange composition------------------------------

X                5.000e-01 mol

	                               Equiv-    Equivalent      Log 
	Species             Moles      alents      Fraction     Gamma

	NaX               4.143e-01   4.143e-01   8.287e-01    -0.045
	CaX2              3.251e-02   6.503e-02   1.301e-01    -0.424
	MgX2              1.032e-02   2.064e-02   4.128e-02    -0.256

-----------------------------Solution composition------------------------------

	Elements           Molality       Moles

[...]
   CH4                    0.000e+00   0.000e+00  -144.816  -144.815     0.001
C(4)             8.297e-03
   HCO3-                  7.997e-03   7.250e-03    -2.097    -2.140    -0.043
   CO3-2                  1.893e-04   1.279e-04    -3.723    -3.893    -0.170
   CO2                    4.326e-05   4.336e-05    -4.364    -4.363     0.001
   NaHCO3                 3.312e-05   3.320e-05    -4.480    -4.479     0.001
   NaCO3-                 2.146e-05   1.939e-05    -4.668    -4.713    -0.044
   CaCO3                  5.552e-06   5.565e-06    -5.256    -5.255     0.001
   CaHCO3+                2.644e-06   2.396e-06    -5.578    -5.620    -0.043
   MgCO3                  2.336e-06   2.341e-06    -5.631    -5.631     0.001
   MgHCO3+                1.802e-06   1.628e-06    -5.744    -5.788    -0.044
Ca               4.738e-05
   Ca+2                   3.839e-05   2.591e-05    -4.416    -4.587    -0.171
   CaCO3                  5.552e-06   5.565e-06    -5.256    -5.255     0.001
   CaHCO3+                2.644e-06   2.396e-06    -5.578    -5.620    -0.043
   CaSO4                  7.861e-07   7.878e-07    -6.105    -6.104     0.001
   CaOH+                  1.789e-09   1.616e-09    -8.747    -8.791    -0.044
   CaHSO4+                1.358e-14   1.227e-14   -13.867   -13.911    -0.044
Cl               3.420e-04
   Cl-                    3.420e-04   3.084e-04    -3.466    -3.511    -0.045
H(0)             0.000e+00
   H2                     0.000e+00   0.000e+00   -44.362   -44.361     0.001
Mg               3.311e-05
   Mg+2                   2.826e-05   1.919e-05    -4.549    -4.717    -0.168
   MgCO3                  2.336e-06   2.341e-06    -5.631    -5.631     0.001
   MgHCO3+                1.802e-06   1.628e-06    -5.744    -5.788    -0.044
   MgSO4                  6.841e-07   6.856e-07    -6.165    -6.164     0.001
   MgOH+                  2.899e-08   2.620e-08    -7.538    -7.582    -0.044
Na               9.064e-03
   Na+                    9.002e-03   8.143e-03    -2.046    -2.089    -0.044
   NaHCO3                 3.312e-05   3.320e-05    -4.480    -4.479     0.001
   NaCO3-                 2.146e-05   1.939e-05    -4.668    -4.713    -0.044
   NaSO4-                 6.884e-06   6.219e-06    -5.162    -5.206    -0.044
   NaOH                   2.018e-08   2.022e-08    -7.695    -7.694     0.001
O(0)             4.375e-04
   O2                     2.187e-04   2.192e-04    -3.660    -3.659     0.001
S(-2)            0.000e+00
   HS-                    0.000e+00   0.000e+00  -143.539  -143.584    -0.045
   H2S                    0.000e+00   0.000e+00  -145.219  -145.218     0.001
   S-2                    0.000e+00   0.000e+00  -147.754  -147.927    -0.172
S(6)             2.352e-04
   SO4-2                  2.269e-04   1.524e-04    -3.644    -3.817    -0.173
   NaSO4-                 6.884e-06   6.219e-06    -5.162    -5.206    -0.044
   CaSO4                  7.861e-07   7.878e-07    -6.105    -6.104     0.001
   MgSO4                  6.841e-07   6.856e-07    -6.165    -6.164     0.001
   HSO4-                  4.361e-11   3.940e-11   -10.360   -10.404    -0.044
   CaHSO4+                1.358e-14   1.227e-14   -13.867   -13.911    -0.044

------------------------------Saturation indices-------------------------------

	Phase               SI log IAP  log KT

	Anhydrite        -4.04   -8.40   -4.36  CaSO4
	Aragonite        -0.14   -8.48   -8.34  CaCO3
	Calcite              0   -8.48   -8.48  CaCO3
	CH4(g)         -141.95 -144.81   -2.86  CH4
	CO2(g)           -2.89   -4.36   -1.47  CO2
	Dolomite             0  -17.09  -17.09  CaMg(CO3)2
	Gypsum           -3.82   -8.40   -4.58  CaSO4:2H2O
	H2(g)           -41.21  -44.36   -3.15  H2
	H2O(g)           -1.51       0    1.51  H2O
	H2S(g)         -144.22 -145.22   -1.00  H2S
	Halite           -7.18   -5.60    1.58  NaCl
	O2(g)            -0.70   -3.66   -2.96  O2
	Sulfur         -108.89 -104.01    4.88  S

Time 31000. Cell 425: x=          48000	y=          48000	z=            400
Using solution 425.
Using exchange 425
Using surface 425.
Using pure phase assemblage 425.

-------------------------------Phase assemblage--------------------------------

                                                      Moles in assemblage
Phase                  SI log IAP  log KT      Initial       Final       Delta

Calcite                 0   -8.48   -8.48    1.260e-01   1.256e-01  -4.340e-04
Dolomite                0  -17.09  -17.09    1.549e+00   1.549e+00   7.191e-07

------------------------------Surface composition------------------------------

Surf          
	 -1.769e-03  Surface charge, eq
	 -9.485e-03  sigma, C/m**2
	 -3.936e-02  psi, V
	  1.532e+00  -F*psi/RT
	  4.628e+00  exp(-F*psi/RT)
	  6.000e+02  specific area, m**2/g
	  1.800e+04  m**2 for   3.000e+01 g


Surf          
	  1.400e-01  moles
	                                   Mole                     Log
	Species               Moles    Fraction    Molality    Molality

	SurfOH            9.539e-02       0.681   9.539e-02      -1.020
	SurfOH2+          2.947e-02       0.211   2.947e-02      -1.531
	SurfOHAsO4-3      8.050e-03       0.058   8.050e-03      -2.094
	SurfO-            7.073e-03       0.051   7.073e-03      -2.150
	SurfHAsO4-        1.721e-05           0   1.721e-05      -4.764
	SurfH2AsO4        1.721e-07           0   1.721e-07      -6.764

-----------------------------Exchange composition------------------------------

X                5.000e-01 mol

	                               Equiv-    Equivalent      Log 
	Species             Moles      alents      Fraction     Gamma

	NaX               1.626e-01   1.626e-01   3.251e-01    -0.043
	CaX2              1.152e-01   2.304e-01   4.608e-01    -0.167
	MgX2              5.352e-02   1.070e-01   2.141e-01    -0.165

-----------------------------Solution composition------------------------------

	Elements           Molality       Moles

	As                3.631e-07   3.631e-07
	C                 8.151e-03   8.151e-03
	Ca                5.956e-05   5.956e-05
	Cl                1.371e-04   1.371e-04
	Mg                4.208e-05   4.208e-05
	Na                8.524e-03   8.524e-03
	S                 2.351e-04   2.351e-04

----------------------------Description of solution----------------------------

                                       pH  =   8.465      Charge balance
                                       pe  =  12.140      Adjusted to redox equilibrium
                        Activity of water  =   1.000
                           Ionic strength  =   9.180e-03
                       Mass of water (kg)  =   1.000e+00
                 Total alkalinity (eq/kg)  =   8.267e-03
                       Total CO2 (mol/kg)  =   8.151e-03
                      Temperature (deg C)  =  25.000
                  Electrical balance (eq)  =  -1.471e-04
 Percent error, 100*(Cat-|An|)/(Cat+|An|)  =  -0.84
                               Iterations  =  12
                                  Total H  = 1.110183e+02
                                  Total O  = 5.553097e+01

----------------------------Distribution of species----------------------------

                                                   Log       Log         Log 
   Species                 Molality    Activity  Molality  Activity     Gamma

   OH-                    3.234e-06   2.923e-06    -5.490    -5.534    -0.044
   H+                     3.737e-09   3.424e-09    -8.427    -8.465    -0.038
   H2O                    5.551e+01   9.997e-01     1.744         0         0
As               3.631e-07
   HAsO4-2                3.544e-07   2.382e-07    -6.451    -6.623    -0.173
   H2AsO4-                8.216e-09   7.439e-09    -8.085    -8.128    -0.043
   AsO4-3                 5.378e-10   2.200e-10    -9.269    -9.658    -0.388
   H3AsO4                 4.417e-15   4.426e-15   -14.355   -14.354     0.001
C(-4)            0.000e+00
   CH4                    0.000e+00   0.000e+00  -144.711  -144.710     0.001
C(4)             8.151e-03
   HCO3-                  7.892e-03   7.169e-03    -2.103    -2.145    -0.042
   CO3-2                  1.442e-04   9.819e-05    -3.841    -4.008    -0.167
   CO2                    5.509e-05   5.521e-05    -4.259    -4.258     0.001
   NaHCO3                 3.089e-05   3.096e-05    -4.510    -4.509     0.001
   NaCO3-                 1.551e-05   1.404e-05    -4.810    -4.853    -0.043
   CaCO3                  5.553e-06   5.565e-06    -5.255    -5.255     0.001
   CaHCO3+                3.397e-06   3.086e-06    -5.469    -5.511    -0.042
   MgCO3                  2.337e-06   2.341e-06    -5.631    -5.631     0.001
   MgHCO3+                2.315e-06   2.096e-06    -5.635    -5.679    -0.043
Ca               5.956e-05
   Ca+2                   4.957e-05   3.374e-05    -4.305    -4.472    -0.167
   CaCO3                  5.553e-06   5.565e-06    -5.255    -5.255     0.001
   CaHCO3+                3.397e-06   3.086e-06    -5.469    -5.511    -0.042
   CaSO4                  1.031e-06   1.034e-06    -5.987    -5.986     0.001
   CaOH+                  1.805e-09   1.635e-09    -8.743    -8.787    -0.043
   CaHSO4+                2.290e-14   2.073e-14   -13.640   -13.683    -0.043
Cl               1.371e-04
   Cl-                    1.371e-04   1.239e-04    -3.863    -3.907    -0.044
H(0)             0.000e+00
   H2                     0.000e+00   0.000e+00   -44.361   -44.361     0.001
Mg               4.208e-05
   Mg+2                   3.650e-05   2.499e-05    -4.438    -4.602    -0.165
   MgCO3                  2.337e-06   2.341e-06    -5.631    -5.631     0.001
   MgHCO3+                2.315e-06   2.096e-06    -5.635    -5.679    -0.043
   MgSO4                  8.977e-07   8.996e-07    -6.047    -6.046     0.001
   MgOH+                  2.926e-08   2.649e-08    -7.534    -7.577    -0.043
Na               8.524e-03
   Na+                    8.471e-03   7.679e-03    -2.072    -2.115    -0.043
   NaHCO3                 3.089e-05   3.096e-05    -4.510    -4.509     0.001
   NaCO3-                 1.551e-05   1.404e-05    -4.810    -4.853    -0.043
   NaSO4-                 6.527e-06   5.910e-06    -5.185    -5.228    -0.043
   NaOH                   1.478e-08   1.481e-08    -7.830    -7.829     0.001
O(0)             4.375e-04
   O2                     2.187e-04   2.192e-04    -3.660    -3.659     0.001
S(-2)            0.000e+00
   HS-                    0.000e+00   0.000e+00  -143.427  -143.471    -0.044
   H2S                    0.000e+00   0.000e+00  -144.996  -144.995     0.001
   S-2                    0.000e+00   0.000e+00  -147.755  -147.923    -0.169
S(6)             2.351e-04
   SO4-2                  2.266e-04   1.536e-04    -3.645    -3.814    -0.169
   NaSO4-                 6.527e-06   5.910e-06    -5.185    -5.228    -0.043
   CaSO4                  1.031e-06   1.034e-06    -5.987    -5.986     0.001
   MgSO4                  8.977e-07   8.996e-07    -6.047    -6.046     0.001
   HSO4-                  5.646e-11   5.112e-11   -10.248   -10.291    -0.043
   CaHSO4+                2.290e-14   2.073e-14   -13.640   -13.683    -0.043

------------------------------Saturation indices-------------------------------

	Phase               SI log IAP  log KT

	Anhydrite        -3.92   -8.29   -4.36  CaSO4
	Aragonite        -0.14   -8.48   -8.34  CaCO3
	Calcite              0   -8.48   -8.48  CaCO3
	CH4(g)         -141.85 -144.71   -2.86  CH4
	CO2(g)           -2.79   -4.26   -1.47  CO2
	Dolomite             0  -17.09  -17.09  CaMg(CO3)2
	Gypsum           -3.70   -8.29   -4.58  CaSO4:2H2O
	H2(g)           -41.21  -44.36   -3.15  H2
	H2O(g)           -1.51       0    1.51  H2O
	H2S(g)         -144.00 -144.99   -1.00  H2S
	Halite           -7.60   -6.02    1.58  NaCl
	O2(g)            -0.70   -3.66   -2.96  O2
	Sulfur         -108.67 -103.78    4.88  S

Time 31000. Cell 426: x=          54000	y=          48000	z=            400
Using solution 426.
Using exchange 426
Using surface 426.
Using pure phase assemblage 426.

-------------------------------Phase assemblage--------------------------------

                                                      Moles in assemblage
Phase                  SI log IAP  log KT      Initial       Final       Delta

Calcite                 0   -8.48   -8.48    1.168e-01   1.163e-01  -5.344e-04
Dolomite                0  -17.09  -17.09    1.552e+00   1.552e+00   1.472e-05

------------------------------Surface composition------------------------------

Surf          
	 -1.250e-03  Surface charge, eq
	 -6.701e-03  sigma, C/m**2
	 -2.929e-02  psi, V
	  1.140e+00  -F*psi/RT
	  3.127e+00  exp(-F*psi/RT)
	  6.000e+02  specific area, m**2/g
	  1.800e+04  m**2 for   3.000e+01 g


Surf          
	  1.400e-01  moles
	                                   Mole                     Log
	Species               Moles    Fraction    Molality    Molality

	SurfOH            9.513e-02       0.680   9.513e-02      -1.022
	SurfOH2+          2.986e-02       0.213   2.986e-02      -1.525
	SurfOHAsO4-3      8.049e-03       0.057   8.049e-03      -2.094
	SurfO-            6.943e-03       0.050   6.943e-03      -2.158
	SurfHAsO4-        1.776e-05           0   1.776e-05      -4.751
	SurfH2AsO4        1.804e-07           0   1.804e-07      -6.744

-----------------------------Exchange composition------------------------------

X                5.000e-01 mol

	                               Equiv-    Equivalent      Log 
	Species             Moles      alents      Fraction     Gamma

	NaX               1.337e-01   1.337e-01   2.674e-01    -0.042
	CaX2              1.250e-01   2.501e-01   5.002e-01    -0.166
	MgX2              5.810e-02   1.162e-01   2.324e-01    -0.163

-----------------------------Solution composition------------------------------

	Elements           Molality       Moles

	As                1.701e-07   1.701e-07
	C                 8.068e-03   8.068e-03
	Ca                8.701e-05   8.701e-05
	Cl                1.340e-04   1.340e-04
	Mg                6.228e-05   6.228e-05
	Na                8.260e-03   8.260e-03
	S                 2.351e-04   2.351e-04

----------------------------Description of solution----------------------------

                                       pH  =   8.288      Charge balance
                                       pe  =  12.317      Adjusted to redox equilibrium
                        Activity of water  =   1.000
                           Ionic strength  =   9.006e-03
                       Mass of water (kg)  =   1.000e+00
                 Total alkalinity (eq/kg)  =   8.101e-03
                       Total CO2 (mol/kg)  =   8.068e-03
                      Temperature (deg C)  =  25.000
                  Electrical balance (eq)  =  -1.465e-04
 Percent error, 100*(Cat-|An|)/(Cat+|An|)  =  -0.86
                               Iterations  =  12
                                  Total H  = 1.110183e+02
                                  Total O  = 5.553072e+01

----------------------------Distribution of species----------------------------

                                                   Log       Log         Log 
   Species                 Molality    Activity  Molality  Activity     Gamma

   OH-                    2.149e-06   1.944e-06    -5.668    -5.711    -0.044
   H+                     5.616e-09   5.148e-09    -8.251    -8.288    -0.038
   H2O                    5.551e+01   9.997e-01     1.744         0         0
As               1.701e-07
   HAsO4-2                1.642e-07   1.108e-07    -6.785    -6.956    -0.171
   H2AsO4-                5.739e-09   5.201e-09    -8.241    -8.284    -0.043
   AsO4-3                 1.651e-10   6.804e-11    -9.782   -10.167    -0.385
   H3AsO4                 4.643e-15   4.653e-15   -14.333   -14.332     0.001
C(-4)            0.000e+00
   CH4                    0.000e+00   0.000e+00  -144.536  -144.535     0.001
C(4)             8.068e-03
   HCO3-                  7.835e-03   7.123e-03    -2.106    -2.147    -0.041
   CO3-2                  9.498e-05   6.488e-05    -4.022    -4.188    -0.165
   CO2                    8.230e-05   8.247e-05    -4.085    -4.084     0.001
   NaHCO3                 2.978e-05   2.985e-05    -4.526    -4.525     0.001
   NaCO3-                 9.935e-06   9.003e-06    -5.003    -5.046    -0.043
   CaCO3                  5.553e-06   5.565e-06    -5.255    -5.255     0.001
   CaHCO3+                5.103e-06   4.640e-06    -5.292    -5.334    -0.041
   MgHCO3+                3.478e-06   3.152e-06    -5.459    -5.501    -0.043
   MgCO3                  2.337e-06   2.341e-06    -5.631    -5.631     0.001
Ca               8.701e-05
   Ca+2                   7.479e-05   5.106e-05    -4.126    -4.292    -0.166
   CaCO3                  5.553e-06   5.565e-06    -5.255    -5.255     0.001
   CaHCO3+                5.103e-06   4.640e-06    -5.292    -5.334    -0.041
   CaSO4                  1.561e-06   1.564e-06    -5.807    -5.806     0.001
   CaOH+                  1.816e-09   1.645e-09    -8.741    -8.784    -0.043
   CaHSO4+                5.204e-14   4.716e-14   -13.284   -13.326    -0.043
Cl               1.340e-04
   Cl-                    1.340e-04   1.212e-04    -3.873    -3.916    -0.043
H(0)             0.000e+00
   H2                     0.000e+00   0.000e+00   -44.361   -44.361     0.001
Mg               6.228e-05
   Mg+2                   5.507e-05   3.782e-05    -4.259    -4.422    -0.163
   MgHCO3+                3.478e-06   3.152e-06    -5.459    -5.501    -0.043
   MgCO3                  2.337e-06   2.341e-06    -5.631    -5.631     0.001
   MgSO4                  1.358e-06   1.361e-06    -5.867    -5.866     0.001
   MgOH+                  2.942e-08   2.666e-08    -7.531    -7.574    -0.043
Na               8.260e-03
   Na+                    8.214e-03   7.452e-03    -2.085    -2.128    -0.042
   NaHCO3                 2.978e-05   2.985e-05    -4.526    -4.525     0.001
   NaCO3-                 9.935e-06   9.003e-06    -5.003    -5.046    -0.043
   NaSO4-                 6.326e-06   5.733e-06    -5.199    -5.242    -0.043
   NaOH                   9.540e-09   9.560e-09    -8.020    -8.020     0.001
O(0)             4.375e-04
   O2                     2.187e-04   2.192e-04    -3.660    -3.659     0.001
S(-2)            0.000e+00
   HS-                    0.000e+00   0.000e+00  -143.250  -143.294    -0.044
   H2S                    0.000e+00   0.000e+00  -144.641  -144.641     0.001
   S-2                    0.000e+00   0.000e+00  -147.756  -147.924    -0.167
S(6)             2.351e-04
   SO4-2                  2.258e-04   1.535e-04    -3.646    -3.814    -0.168
   NaSO4-                 6.326e-06   5.733e-06    -5.199    -5.242    -0.043
   CaSO4                  1.561e-06   1.564e-06    -5.807    -5.806     0.001
   MgSO4                  1.358e-06   1.361e-06    -5.867    -5.866     0.001
   HSO4-                  8.479e-11   7.684e-11   -10.072   -10.114    -0.043
   CaHSO4+                5.204e-14   4.716e-14   -13.284   -13.326    -0.043

------------------------------Saturation indices-------------------------------

	Phase               SI log IAP  log KT

	Anhydrite        -3.75   -8.11   -4.36  CaSO4
	Aragonite        -0.14   -8.48   -8.34  CaCO3
	Calcite              0   -8.48   -8.48  CaCO3
	CH4(g)         -141.68 -144.54   -2.86  CH4
	CO2(g)           -2.62   -4.08   -1.47  CO2
	Dolomite             0  -17.09  -17.09  CaMg(CO3)2
	Gypsum           -3.53   -8.11   -4.58  CaSO4:2H2O
	H2(g)           -41.21  -44.36   -3.15  H2
	H2O(g)           -1.51       0    1.51  H2O
	H2S(g)         -143.64 -144.64   -1.00  H2S
	Halite           -7.63   -6.04    1.58  NaCl
	O2(g)            -0.70   -3.66   -2.96  O2
	Sulfur         -108.31 -103.43    4.88  S

Time 31000. Cell 428: x=          66000	y=          48000	z=            400
Cell is dry.
Time 31000. Cell 430: x=          78000	y=          48000	z=            400
Cell is dry.
Time 31000. Cell 432: x=          90000	y=          48000	z=            400
Cell is dry.
