Output file:    ex2.O.chem
Chemistry file: ex2.chem.dat
Database file:  phast.dat

------------------
Reading data base.
------------------

	SOLUTION_MASTER_SPECIES
	SOLUTION_SPECIES
	PHASES
	EXCHANGE_MASTER_SPECIES
	EXCHANGE_SPECIES
	SURFACE_MASTER_SPECIES
	SURFACE_SPECIES
	RATES
	END
------------------------------------
Reading input data for simulation 1.
------------------------------------

	SOLUTION_MASTER_SPECIES
	        [A]   [A]   1       1       1
	        [B]   [B]   1       1       1
	        [C]   [C]   1       1       1
	        [D]   [D]   1       1       1
	SOLUTION_SPECIES
	        [A] = [A]
	                log_k   0
	        [B] = [B]
	                log_k   0
	        [C] = [C]
	                log_k   0
	        [D] = [D]
	                log_k   0
	SOLUTION 1
	END
-------------------------------------------
Beginning of initial solution calculations.
-------------------------------------------

Initial solution 1.	

-----------------------------Solution composition------------------------------

	Elements           Molality       Moles

	Pure water     

----------------------------Description of solution----------------------------

                                       pH  =   7.000    
                                       pe  =   4.000    
                        Activity of water  =   1.000
                           Ionic strength  =   1.001e-07
                       Mass of water (kg)  =   1.000e+00
                 Total alkalinity (eq/kg)  =   1.082e-10
                    Total carbon (mol/kg)  =   0.000e+00
                       Total CO2 (mol/kg)  =   0.000e+00
                      Temperature (deg C)  =  25.000
                  Electrical balance (eq)  =  -1.082e-10
 Percent error, 100*(Cat-|An|)/(Cat+|An|)  =  -0.05
                               Iterations  =   0
                                  Total H  = 1.110124e+02
                                  Total O  = 5.550622e+01

----------------------------Distribution of species----------------------------

                                                   Log       Log         Log 
   Species                 Molality    Activity  Molality  Activity     Gamma

   OH-                    1.002e-07   1.001e-07    -6.999    -6.999    -0.000
   H+                     1.001e-07   1.000e-07    -7.000    -7.000    -0.000
   H2O                    5.551e+01   1.000e+00     1.744     0.000     0.000
H(0)             1.416e-25
   H2                     7.079e-26   7.079e-26   -25.150   -25.150     0.000
O(0)             0.000e+00
   O2                     0.000e+00   0.000e+00   -42.080   -42.080     0.000

------------------------------Saturation indices-------------------------------

	Phase               SI log IAP  log KT

	H2(g)           -22.00  -25.15   -3.15  H2
	H2O(g)           -1.51    0.00    1.51  H2O
	O2(g)           -39.12  -42.08   -2.96  O2

------------------
End of simulation.
------------------

------------------------------------
Reading input data for simulation 2.
------------------------------------

	SOLUTION 2
	        units   mmol/kgw
	        pe      12.0    O2(g)   -0.67
	        [A]   1.0
	END
-------------------------------------------
Beginning of initial solution calculations.
-------------------------------------------

Initial solution 2.	

-----------------------------Solution composition------------------------------

	Elements           Molality       Moles

	[A]               1.000e-03   1.000e-03

----------------------------Description of solution----------------------------

                                       pH  =   7.000    
                                       pe  =  13.613      Equilibrium with O2(g)
                        Activity of water  =   1.000
                           Ionic strength  =   1.001e-07
                       Mass of water (kg)  =   1.000e+00
                 Total alkalinity (eq/kg)  =   1.000e-03
                    Total carbon (mol/kg)  =   0.000e+00
                       Total CO2 (mol/kg)  =   0.000e+00
                      Temperature (deg C)  =  25.000
                  Electrical balance (eq)  =  -1.061e-10
 Percent error, 100*(Cat-|An|)/(Cat+|An|)  =  -0.05
                               Iterations  =   3
                                  Total H  = 1.110124e+02
                                  Total O  = 5.550669e+01

----------------------------Distribution of species----------------------------

                                                   Log       Log         Log 
   Species                 Molality    Activity  Molality  Activity     Gamma

   OH-                    1.001e-07   1.001e-07    -6.999    -7.000    -0.000
   H+                     1.000e-07   1.000e-07    -7.000    -7.000    -0.000
   H2O                    5.551e+01   1.000e-00     1.744    -0.000     0.000
H(0)             0.000e+00
   H2                     0.000e+00   0.000e+00   -44.375   -44.375     0.000
O(0)             4.688e-04
   O2                     2.344e-04   2.344e-04    -3.630    -3.630     0.000
[A]              1.000e-03
   [A]                    1.000e-03   1.000e-03    -3.000    -3.000     0.000

------------------------------Saturation indices-------------------------------

	Phase               SI log IAP  log KT

	H2(g)           -41.23  -44.38   -3.15  H2
	H2O(g)           -1.51   -0.00    1.51  H2O
	O2(g)            -0.67   -3.63   -2.96  O2

------------------
End of simulation.
------------------

------------------------------------
Reading input data for simulation 3.
------------------------------------

	RATES
	        [A]_decay
	        start
	10 rate = -TOT("[A]") * .05/(3600*24)
	20 moles = rate * TIME
	30 SAVE moles
	        end
	        [B]_decay
	        start
	10 rate = -TOT("[B]") * .02/(3600*24)
	20 moles = rate * TIME
	30 SAVE moles
	        end
	        [C]_decay
	        start
	10 rate = -TOT("[C]") * .01/(3600*24)
	20 moles = rate * TIME
	30 SAVE moles
	        end
	        [D]_decay
	        start
	10 rate = -TOT("[D]") * .005/(3600*24)
	20 moles = rate * TIME
	30 SAVE moles
	        end
	END
------------------
End of simulation.
------------------

------------------------------------
Reading input data for simulation 4.
------------------------------------

	KINETICS 1
	        [A]_decay
	                formula [A] 1 [B] -1.0
	                m 0
	        [B]_decay
	                formula [B] 1 [C] -1.0
	                m 0
	        [C]_decay
	                formula [C] 1 [D] -1.0
	                m 0
	        [D]_decay
	                formula [D] 1
	                m 0
	END
------------------
End of simulation.
------------------

------------------------------------
Reading input data for simulation 5.
------------------------------------

	SELECTED_OUTPUT
	        file ex2.dummy.sel
	        reset false
	USER_PUNCH
	        heading A B C D 
	        start
	10 PUNCH TOT("[A]")*1000
	20 PUNCH TOT("[B]")*1000
	30 PUNCH TOT("[C]")*1000
	40 PUNCH TOT("[D]")*1000
	        end
	END
------------------
End of simulation.
------------------

------------------------------------
Reading input data for simulation 6.
------------------------------------

List of Components:
	1	H
	2	O
	3	[A]
	4	[B]
	5	[C]
	6	[D]
	7	Charge
List of master species:
	1	[A]
	2	[B]
	3	[C]
	4	[D]
