Output file:    ex4_noedl.chem.txt
Chemistry file: ex4_noedl.chem.dat
Database file:  phast.dat

------------------
Reading data base.
------------------

	SOLUTION_MASTER_SPECIES
	SOLUTION_SPECIES
	PHASES
	EXCHANGE_MASTER_SPECIES
	EXCHANGE_SPECIES
	SURFACE_MASTER_SPECIES
	SURFACE_SPECIES
	RATES
	END
------------------------------------
Reading input data for simulation 1.
------------------------------------

	SURFACE_MASTER_SPECIES
	        Surf    SurfOH
	SURFACE_SPECIES
	        SurfOH = SurfOH
	                log_k   0.0
	        SurfOH  + H+ = SurfOH2+
	                log_k   7.29
	        SurfOH = SurfO- + H+
	                log_k   -8.93
	        SurfOH + AsO4-3 + 3H+ = SurfH2AsO4 + H2O
	                log_k   29.31
	        SurfOH + AsO4-3 + 2H+ = SurfHAsO4- + H2O
	                log_k   23.51
	        SurfOH + AsO4-3 = SurfOHAsO4-3
	                log_k   10.58
	SOLUTION_MASTER_SPECIES
	        As       H3AsO4        -1.0     74.9216         74.9216
	SOLUTION_SPECIES
		H3AsO4 = H2AsO4- + H+
		log_k	-2.3
		delta_h	-7.066	kJ
		H3AsO4 = HAsO4-2 + 2H+
		log_k	-9.46
		delta_h	-3.846	kJ
		H3AsO4 = AsO4-3 + 3H+
		log_k	-21.11
		delta_h	14.354	kJ
	        H3AsO4 = H2AsO4- + H+ 
	        log_k           -2.243
	        delta_h -1.69 kcal
	        H3AsO4 = HAsO4-2 + 2H+ 
	        log_k           -9.001
	        delta_h -0.92 kcal
	        H3AsO4 = AsO4-3 + 3H+
	        log_k           -20.597
	        delta_h 3.43 kcal
	        H3AsO4 = H3AsO4
	        log_k           0.0
	        H3AsO4 = AsO4-3 + 3H+
	        log_k   -20.7
	        H+ + AsO4-3 = HAsO4-2
	        log_k   11.50
	        2H+ + AsO4-3 = H2AsO4-
	        log_k           18.46
	SOLUTION 1 20 x precipitation
	        pH      4.6
	        pe      4.0     O2(g)   -0.7
	        temp    25.
	        units   mmol/kgw
	        Ca      .191625
	        Mg      .035797
	        Na      .122668
	        Cl      .133704
	        C       .01096
	        S       .235153         charge
	END
-------------------------------------------
Beginning of initial solution calculations.
-------------------------------------------

Initial solution 1.	20 x precipitation

-----------------------------Solution composition------------------------------

	Elements           Molality       Moles

	C                 1.096e-05   1.096e-05
	Ca                1.916e-04   1.916e-04
	Cl                1.337e-04   1.337e-04
	Mg                3.580e-05   3.580e-05
	Na                1.227e-04   1.227e-04
	S                 2.351e-04   2.351e-04  Charge balance

----------------------------Description of solution----------------------------

                                       pH  =   4.600    
                                       pe  =  16.005      Equilibrium with O2(g)
                        Activity of water  =   1.000
                           Ionic strength  =   1.035e-03
                       Mass of water (kg)  =   1.000e+00
                 Total alkalinity (eq/kg)  =  -2.630e-05
                       Total CO2 (mol/kg)  =   1.096e-05
                      Temperature (deg C)  =  25.000
                  Electrical balance (eq)  =   7.121e-16
 Percent error, 100*(Cat-|An|)/(Cat+|An|)  =      0
                               Iterations  =   9
                                  Total H  = 1.110125e+02
                                  Total O  = 5.550762e+01

----------------------------Distribution of species----------------------------

                                                   Log       Log         Log 
   Species                 Molality    Activity  Molality  Activity     Gamma

   H+                     2.600e-05   2.512e-05    -4.585    -4.600    -0.015
   OH-                    4.133e-10   3.985e-10    -9.384    -9.400    -0.016
   H2O                    5.551e+01   1.000e+00     1.744         0         0
C(-4)            0.000e+00
   CH4                    0.000e+00   0.000e+00  -145.418  -145.418         0
C(4)             1.096e-05
   CO2                    1.076e-05   1.076e-05    -4.968    -4.968         0
   HCO3-                  1.975e-07   1.906e-07    -6.704    -6.720    -0.015
   CaHCO3+                4.048e-10   3.907e-10    -9.393    -9.408    -0.015
   MgHCO3+                6.905e-11   6.660e-11   -10.161   -10.177    -0.016
   NaHCO3                 1.267e-11   1.267e-11   -10.897   -10.897         0
   CO3-2                  4.105e-13   3.559e-13   -12.387   -12.449    -0.062
   CaCO3                  9.601e-14   9.603e-14   -13.018   -13.018         0
   MgCO3                  1.014e-14   1.014e-14   -13.994   -13.994         0
   NaCO3-                 8.122e-16   7.833e-16   -15.090   -15.106    -0.016
Ca               1.916e-04
   Ca+2                   1.853e-04   1.606e-04    -3.732    -3.794    -0.062
   CaSO4                  6.296e-06   6.297e-06    -5.201    -5.201         0
   CaHSO4+                9.608e-10   9.267e-10    -9.017    -9.033    -0.016
   CaHCO3+                4.048e-10   3.907e-10    -9.393    -9.408    -0.015
   CaOH+                  1.100e-12   1.061e-12   -11.958   -11.974    -0.016
   CaCO3                  9.601e-14   9.603e-14   -13.018   -13.018         0
Cl               1.337e-04
   Cl-                    1.337e-04   1.289e-04    -3.874    -3.890    -0.016
H(0)             0.000e+00
   H2                     0.000e+00   0.000e+00   -44.360   -44.360         0
Mg               3.580e-05
   Mg+2                   3.442e-05   2.986e-05    -4.463    -4.525    -0.062
   MgSO4                  1.375e-06   1.375e-06    -5.862    -5.862         0
   MgHCO3+                6.905e-11   6.660e-11   -10.161   -10.177    -0.016
   MgOH+                  4.475e-12   4.316e-12   -11.349   -11.365    -0.016
   MgCO3                  1.014e-14   1.014e-14   -13.994   -13.994         0
Na               1.227e-04
   Na+                    1.225e-04   1.182e-04    -3.912    -3.927    -0.016
   NaSO4-                 1.207e-07   1.164e-07    -6.918    -6.934    -0.016
   NaHCO3                 1.267e-11   1.267e-11   -10.897   -10.897         0
   NaOH                   3.109e-14   3.109e-14   -13.507   -13.507         0
   NaCO3-                 8.122e-16   7.833e-16   -15.090   -15.106    -0.016
O(0)             4.374e-04
   O2                     2.187e-04   2.188e-04    -3.660    -3.660         0
S(-2)            0.000e+00
   H2S                    0.000e+00   0.000e+00  -137.155  -137.155         0
   HS-                    0.000e+00   0.000e+00  -139.481  -139.497    -0.016
   S-2                    0.000e+00   0.000e+00  -147.752  -147.815    -0.062
S(6)             2.351e-04
   SO4-2                  2.268e-04   1.965e-04    -3.644    -3.707    -0.062
   CaSO4                  6.296e-06   6.297e-06    -5.201    -5.201         0
   MgSO4                  1.375e-06   1.375e-06    -5.862    -5.862         0
   HSO4-                  4.975e-07   4.798e-07    -6.303    -6.319    -0.016
   NaSO4-                 1.207e-07   1.164e-07    -6.918    -6.934    -0.016
   CaHSO4+                9.608e-10   9.267e-10    -9.017    -9.033    -0.016

------------------------------Saturation indices-------------------------------

	Phase               SI log IAP  log KT

	Anhydrite        -3.14   -7.50   -4.36  CaSO4
	Aragonite        -7.91  -16.24   -8.34  CaCO3
	Calcite          -7.76  -16.24   -8.48  CaCO3
	CH4(g)         -142.56 -145.42   -2.86  CH4
	CO2(g)           -3.50   -4.97   -1.47  CO2
	Dolomite        -16.13  -33.22  -17.09  CaMg(CO3)2
	Gypsum           -2.92   -7.50   -4.58  CaSO4:2H2O
	H2(g)           -41.21  -44.36   -3.15  H2
	H2O(g)           -1.51       0    1.51  H2O
	H2S(g)         -136.16 -137.16   -1.00  H2S
	Halite           -9.40   -7.82    1.58  NaCl
	O2(g)            -0.70   -3.66   -2.96  O2
	Sulfur         -100.83  -95.95    4.88  S

------------------
End of simulation.
------------------

------------------------------------
Reading input data for simulation 2.
------------------------------------

	USE solution 1
	EQUILIBRIUM_PHASES 1
	        Dolomite        0.0     1.6
	        Calcite         0.0     0.1
	        CO2(g)          -1.5    100.
	SAVE solution 1
	END
-----------------------------------------
Beginning of batch-reaction calculations.
-----------------------------------------

Reaction step 1.

-------------------------------Phase assemblage--------------------------------

                                                      Moles in assemblage
Phase                  SI log IAP  log KT      Initial       Final       Delta

Calcite                 0   -8.48   -8.48    1.000e-01   9.966e-02  -3.441e-04
CO2(g)              -1.50   -2.97   -1.47    1.000e+02   1.000e+02  -4.066e-03
Dolomite                0  -17.09  -17.09    1.600e+00   1.599e+00  -1.349e-03

-----------------------------Solution composition------------------------------

	Elements           Molality       Moles

	C                 7.119e-03   7.119e-03
	Ca                1.885e-03   1.884e-03
	Cl                1.337e-04   1.337e-04
	Mg                1.385e-03   1.385e-03
	Na                1.227e-04   1.227e-04
	S                 2.351e-04   2.351e-04

----------------------------Description of solution----------------------------

                                       pH  =   7.047      Charge balance
                                       pe  =  13.558      Adjusted to redox equilibrium
                        Activity of water  =   1.000
                           Ionic strength  =   9.629e-03
                       Mass of water (kg)  =   9.999e-01
                 Total alkalinity (eq/kg)  =   6.057e-03
                       Total CO2 (mol/kg)  =   7.119e-03
                      Temperature (deg C)  =  25.000
                  Electrical balance (eq)  =   2.116e-15
 Percent error, 100*(Cat-|An|)/(Cat+|An|)  =      0
                               Iterations  =   9
                                  Total H  = 1.110125e+02
                                  Total O  = 5.552487e+01

----------------------------Distribution of species----------------------------

                                                   Log       Log         Log 
   Species                 Molality    Activity  Molality  Activity     Gamma

   OH-                    1.236e-07   1.115e-07    -6.908    -6.953    -0.045
   H+                     9.814e-08   8.977e-08    -7.008    -7.047    -0.039
   H2O                    5.551e+01   9.998e-01     1.744         0         0
C(-4)            0.000e+00
   CH4                    0.000e+00   0.000e+00  -143.421  -143.420     0.001
C(4)             7.119e-03
   HCO3-                  5.883e-03   5.333e-03    -2.230    -2.273    -0.043
   CO2                    1.074e-03   1.077e-03    -2.969    -2.968     0.001
   CaHCO3+                8.923e-05   8.090e-05    -4.049    -4.092    -0.043
   MgHCO3+                6.082e-05   5.496e-05    -4.216    -4.260    -0.044
   CaCO3                  5.553e-06   5.565e-06    -5.256    -5.255     0.001
   CO3-2                  4.124e-06   2.786e-06    -5.385    -5.555    -0.170
   MgCO3                  2.336e-06   2.341e-06    -5.631    -5.631     0.001
   NaHCO3                 3.310e-07   3.317e-07    -6.480    -6.479     0.001
   NaCO3-                 6.350e-09   5.738e-09    -8.197    -8.241    -0.044
Ca               1.885e-03
   Ca+2                   1.761e-03   1.189e-03    -2.754    -2.925    -0.171
   CaHCO3+                8.923e-05   8.090e-05    -4.049    -4.092    -0.043
   CaSO4                  2.881e-05   2.888e-05    -4.540    -4.539     0.001
   CaCO3                  5.553e-06   5.565e-06    -5.256    -5.255     0.001
   CaOH+                  2.432e-09   2.198e-09    -8.614    -8.658    -0.044
   CaHSO4+                1.681e-11   1.519e-11   -10.775   -10.819    -0.044
Cl               1.337e-04
   Cl-                    1.337e-04   1.206e-04    -3.874    -3.919    -0.045
H(0)             0.000e+00
   H2                     0.000e+00   0.000e+00   -44.361   -44.361     0.001
Mg               1.385e-03
   Mg+2                   1.296e-03   8.807e-04    -2.887    -3.055    -0.168
   MgHCO3+                6.082e-05   5.496e-05    -4.216    -4.260    -0.044
   MgSO4                  2.507e-05   2.513e-05    -4.601    -4.600     0.001
   MgCO3                  2.336e-06   2.341e-06    -5.631    -5.631     0.001
   MgOH+                  3.941e-08   3.561e-08    -7.404    -7.448    -0.044
Na               1.227e-04
   Na+                    1.223e-04   1.106e-04    -3.913    -3.956    -0.044
   NaHCO3                 3.310e-07   3.317e-07    -6.480    -6.479     0.001
   NaSO4-                 7.467e-08   6.747e-08    -7.127    -7.171    -0.044
   NaCO3-                 6.350e-09   5.738e-09    -8.197    -8.241    -0.044
   NaOH                   8.120e-12   8.138e-12   -11.090   -11.089     0.001
O(0)             4.375e-04
   O2                     2.187e-04   2.192e-04    -3.660    -3.659     0.001
S(-2)            0.000e+00
   HS-                    0.000e+00   0.000e+00  -142.108  -142.153    -0.045
   H2S                    0.000e+00   0.000e+00  -142.259  -142.258     0.001
   S-2                    0.000e+00   0.000e+00  -147.852  -148.024    -0.172
S(6)             2.351e-04
   SO4-2                  1.811e-04   1.217e-04    -3.742    -3.915    -0.173
   CaSO4                  2.881e-05   2.888e-05    -4.540    -4.539     0.001
   MgSO4                  2.507e-05   2.513e-05    -4.601    -4.600     0.001
   NaSO4-                 7.467e-08   6.747e-08    -7.127    -7.171    -0.044
   HSO4-                  1.176e-09   1.062e-09    -8.930    -8.974    -0.044
   CaHSO4+                1.681e-11   1.519e-11   -10.775   -10.819    -0.044

------------------------------Saturation indices-------------------------------

	Phase               SI log IAP  log KT

	Anhydrite        -2.48   -6.84   -4.36  CaSO4
	Aragonite        -0.14   -8.48   -8.34  CaCO3
	Calcite              0   -8.48   -8.48  CaCO3
	CH4(g)         -140.56 -143.42   -2.86  CH4
	CO2(g)           -1.50   -2.97   -1.47  CO2
	Dolomite             0  -17.09  -17.09  CaMg(CO3)2
	Gypsum           -2.26   -6.84   -4.58  CaSO4:2H2O
	H2(g)           -41.21  -44.36   -3.15  H2
	H2O(g)           -1.51       0    1.51  H2O
	H2S(g)         -141.26 -142.26   -1.00  H2S
	Halite           -9.46   -7.87    1.58  NaCl
	O2(g)            -0.70   -3.66   -2.96  O2
	Sulfur         -105.93 -101.05    4.88  S

------------------
End of simulation.
------------------

------------------------------------
Reading input data for simulation 3.
------------------------------------

	SOLUTION 2 Brine
	        pH      5.713
	        pe      4.0     O2(g)   -0.7
	        temp    25.
	        units   mol/kgw
	        Ca      .4655
	        Mg      .1609
	        Na      5.402
	        Cl      6.642           charge
	        C       .00396
	        S       .004725
	        As      .01 umol/kgw
	END
-------------------------------------------
Beginning of initial solution calculations.
-------------------------------------------

Initial solution 2.	Brine

-----------------------------Solution composition------------------------------

	Elements           Molality       Moles

	As                1.000e-08   1.000e-08
	C                 3.960e-03   3.960e-03
	Ca                4.655e-01   4.655e-01
	Cl                6.642e+00   6.642e+00  Charge balance
	Mg                1.609e-01   1.609e-01
	Na                5.402e+00   5.402e+00
	S                 4.725e-03   4.725e-03

----------------------------Description of solution----------------------------

                                       pH  =   5.713    
                                       pe  =  14.945      Equilibrium with O2(g)
                        Activity of water  =   0.785
                           Ionic strength  =   7.266e+00
                       Mass of water (kg)  =   1.000e+00
                 Total alkalinity (eq/kg)  =   3.758e-03
                       Total CO2 (mol/kg)  =   3.960e-03
                      Temperature (deg C)  =  25.000
                  Electrical balance (eq)  =  -4.354e-11
 Percent error, 100*(Cat-|An|)/(Cat+|An|)  =      0
                               Iterations  =  10
                                  Total H  = 1.110162e+02
                                  Total O  = 5.553688e+01

----------------------------Distribution of species----------------------------

                                                   Log       Log         Log 
   Species                 Molality    Activity  Molality  Activity     Gamma

   H+                     2.755e-06   1.936e-06    -5.560    -5.713    -0.153
   OH-                    8.773e-09   4.056e-09    -8.057    -8.392    -0.335
   H2O                    5.551e+01   7.846e-01     1.744    -0.105         0
As               1.000e-08
   H2AsO4-                9.993e-09   5.476e-08    -8.000    -7.262     0.739
   H3AsO4                 3.458e-12   1.843e-11   -11.461   -10.735     0.727
   HAsO4-2                3.440e-12   3.100e-09   -11.463    -8.509     2.955
   AsO4-3                 1.137e-21   5.063e-15   -20.944   -14.296     6.649
C(-4)            0.000e+00
   CH4                    0.000e+00   0.000e+00  -144.357  -143.631     0.727
C(4)             3.960e-03
   CaHCO3+                3.015e-03   1.745e-03    -2.521    -2.758    -0.238
   HCO3-                  3.336e-04   1.931e-04    -3.477    -3.714    -0.238
   MgHCO3+                2.161e-04   1.184e-03    -3.665    -2.927     0.739
   CO2                    2.010e-04   1.071e-03    -3.697    -2.970     0.727
   NaHCO3                 1.924e-04   1.025e-03    -3.716    -2.989     0.727
   CaCO3                  1.044e-06   5.564e-06    -5.981    -5.255     0.727
   MgCO3                  4.389e-07   2.339e-06    -6.358    -5.631     0.727
   NaCO3-                 1.500e-07   8.221e-07    -6.824    -6.085     0.739
   CO3-2                  4.170e-08   4.676e-09    -7.380    -8.330    -0.950
Ca               4.655e-01
   Ca+2                   4.609e-01   7.084e-01    -0.336    -0.150     0.187
   CaHCO3+                3.015e-03   1.745e-03    -2.521    -2.758    -0.238
   CaSO4                  1.600e-03   8.528e-03    -2.796    -2.069     0.727
   CaCO3                  1.044e-06   5.564e-06    -5.981    -5.255     0.727
   CaHSO4+                1.766e-08   9.674e-08    -7.753    -7.014     0.739
   CaOH+                  8.693e-09   4.763e-08    -8.061    -7.322     0.739
Cl               6.642e+00
   Cl-                    6.642e+00   3.946e+00     0.822     0.596    -0.226
H(0)             0.000e+00
   H2                     0.000e+00   0.000e+00   -45.192   -44.465     0.727
Mg               1.609e-01
   Mg+2                   1.593e-01   5.242e-01    -0.798    -0.280     0.517
   MgSO4                  1.391e-03   7.415e-03    -2.857    -2.130     0.727
   MgHCO3+                2.161e-04   1.184e-03    -3.665    -2.927     0.739
   MgCO3                  4.389e-07   2.339e-06    -6.358    -5.631     0.727
   MgOH+                  1.407e-07   7.712e-07    -6.852    -6.113     0.739
Na               5.402e+00
   Na+                    5.401e+00   9.442e+00     0.732     0.975     0.243
   NaSO4-                 5.211e-04   2.855e-03    -3.283    -2.544     0.739
   NaHCO3                 1.924e-04   1.025e-03    -3.716    -2.989     0.727
   NaCO3-                 1.500e-07   8.221e-07    -6.824    -6.085     0.739
   NaOH                   4.743e-09   2.528e-08    -8.324    -7.597     0.727
O(0)             8.211e-05
   O2                     4.106e-05   2.188e-04    -4.387    -3.660     0.727
S(-2)            0.000e+00
   H2S                    0.000e+00   0.000e+00  -140.620  -139.894     0.727
   HS-                    0.000e+00   0.000e+00  -140.787  -141.122    -0.335
   S-2                    0.000e+00   0.000e+00  -147.315  -148.327    -1.012
S(6)             4.725e-03
   CaSO4                  1.600e-03   8.528e-03    -2.796    -2.069     0.727
   MgSO4                  1.391e-03   7.415e-03    -2.857    -2.130     0.727
   SO4-2                  1.212e-03   6.034e-05    -2.916    -4.219    -1.303
   NaSO4-                 5.211e-04   2.855e-03    -3.283    -2.544     0.739
   CaHSO4+                1.766e-08   9.674e-08    -7.753    -7.014     0.739
   HSO4-                  2.073e-09   1.136e-08    -8.683    -7.945     0.739

------------------------------Saturation indices-------------------------------

	Phase               SI log IAP  log KT

	Anhydrite        -0.01   -4.37   -4.36  CaSO4
	Aragonite        -0.14   -8.48   -8.34  CaCO3
	Calcite              0   -8.48   -8.48  CaCO3
	CH4(g)         -140.77 -143.63   -2.86  CH4
	CO2(g)           -1.50   -2.97   -1.47  CO2
	Dolomite             0  -17.09  -17.09  CaMg(CO3)2
	Gypsum               0   -4.58   -4.58  CaSO4:2H2O
	H2(g)           -41.32  -44.47   -3.15  H2
	H2O(g)           -1.62   -0.11    1.51  H2O
	H2S(g)         -138.90 -139.89   -1.00  H2S
	Halite           -0.01    1.57    1.58  NaCl
	O2(g)            -0.70   -3.66   -2.96  O2
	Sulfur         -103.46  -98.58    4.88  S

------------------
End of simulation.
------------------

------------------------------------
Reading input data for simulation 4.
------------------------------------

	USE solution 2
	EQUILIBRIUM_PHASES 2
	        Dolomite        0.0     1.6
	        Calcite         0.0     0.1
	SAVE solution 2
	END
-----------------------------------------
Beginning of batch-reaction calculations.
-----------------------------------------

Reaction step 1.

-------------------------------Phase assemblage--------------------------------

                                                      Moles in assemblage
Phase                  SI log IAP  log KT      Initial       Final       Delta

Calcite                 0   -8.48   -8.48    1.000e-01   1.002e-01   2.185e-04
Dolomite                0  -17.09  -17.09    1.600e+00   1.600e+00  -1.093e-04

-----------------------------Solution composition------------------------------

	Elements           Molality       Moles

	As                1.000e-08   1.000e-08
	C                 3.960e-03   3.960e-03
	Ca                4.654e-01   4.654e-01
	Cl                6.642e+00   6.642e+00
	Mg                1.610e-01   1.610e-01
	Na                5.402e+00   5.402e+00
	S                 4.725e-03   4.725e-03

----------------------------Description of solution----------------------------

                                       pH  =   5.713      Charge balance
                                       pe  =  14.945      Adjusted to redox equilibrium
                        Activity of water  =   0.785
                           Ionic strength  =   7.266e+00
                       Mass of water (kg)  =   1.000e+00
                 Total alkalinity (eq/kg)  =   3.758e-03
                       Total CO2 (mol/kg)  =   3.960e-03
                      Temperature (deg C)  =  25.000
                  Electrical balance (eq)  =  -4.354e-11
 Percent error, 100*(Cat-|An|)/(Cat+|An|)  =      0
                               Iterations  =   2
                                  Total H  = 1.110162e+02
                                  Total O  = 5.553688e+01

----------------------------Distribution of species----------------------------

                                                   Log       Log         Log 
   Species                 Molality    Activity  Molality  Activity     Gamma

   H+                     2.754e-06   1.936e-06    -5.560    -5.713    -0.153
   OH-                    8.776e-09   4.057e-09    -8.057    -8.392    -0.335
   H2O                    5.551e+01   7.846e-01     1.744    -0.105         0
As               1.000e-08
   H2AsO4-                9.993e-09   5.476e-08    -8.000    -7.262     0.739
   H3AsO4                 3.457e-12   1.842e-11   -11.461   -10.735     0.727
   HAsO4-2                3.441e-12   3.101e-09   -11.463    -8.508     2.955
   AsO4-3                 1.138e-21   5.066e-15   -20.944   -14.295     6.649
C(-4)            0.000e+00
   CH4                    0.000e+00   0.000e+00  -144.357  -143.631     0.727
C(4)             3.960e-03
   CaHCO3+                3.015e-03   1.745e-03    -2.521    -2.758    -0.238
   HCO3-                  3.337e-04   1.931e-04    -3.477    -3.714    -0.238
   MgHCO3+                2.163e-04   1.185e-03    -3.665    -2.926     0.739
   CO2                    2.010e-04   1.071e-03    -3.697    -2.970     0.727
   NaHCO3                 1.924e-04   1.025e-03    -3.716    -2.989     0.727
   CaCO3                  1.044e-06   5.565e-06    -5.981    -5.255     0.727
   MgCO3                  4.394e-07   2.341e-06    -6.357    -5.631     0.727
   NaCO3-                 1.501e-07   8.224e-07    -6.824    -6.085     0.739
   CO3-2                  4.171e-08   4.678e-09    -7.380    -8.330    -0.950
Ca               4.654e-01
   Ca+2                   4.608e-01   7.082e-01    -0.337    -0.150     0.187
   CaHCO3+                3.015e-03   1.745e-03    -2.521    -2.758    -0.238
   CaSO4                  1.600e-03   8.525e-03    -2.796    -2.069     0.727
   CaCO3                  1.044e-06   5.565e-06    -5.981    -5.255     0.727
   CaHSO4+                1.764e-08   9.668e-08    -7.753    -7.015     0.739
   CaOH+                  8.693e-09   4.763e-08    -8.061    -7.322     0.739
Cl               6.642e+00
   Cl-                    6.642e+00   3.946e+00     0.822     0.596    -0.226
H(0)             0.000e+00
   H2                     0.000e+00   0.000e+00   -45.192   -44.465     0.727
Mg               1.610e-01
   Mg+2                   1.594e-01   5.246e-01    -0.798    -0.280     0.517
   MgSO4                  1.392e-03   7.419e-03    -2.856    -2.130     0.727
   MgHCO3+                2.163e-04   1.185e-03    -3.665    -2.926     0.739
   MgCO3                  4.394e-07   2.341e-06    -6.357    -5.631     0.727
   MgOH+                  1.409e-07   7.719e-07    -6.851    -6.112     0.739
Na               5.402e+00
   Na+                    5.401e+00   9.442e+00     0.732     0.975     0.243
   NaSO4-                 5.210e-04   2.855e-03    -3.283    -2.544     0.739
   NaHCO3                 1.924e-04   1.025e-03    -3.716    -2.989     0.727
   NaCO3-                 1.501e-07   8.224e-07    -6.824    -6.085     0.739
   NaOH                   4.744e-09   2.528e-08    -8.324    -7.597     0.727
O(0)             8.211e-05
   O2                     4.106e-05   2.188e-04    -4.387    -3.660     0.727
S(-2)            0.000e+00
   H2S                    0.000e+00   0.000e+00  -140.621  -139.894     0.727
   HS-                    0.000e+00   0.000e+00  -140.788  -141.123    -0.335
   S-2                    0.000e+00   0.000e+00  -147.315  -148.327    -1.012
S(6)             4.725e-03
   CaSO4                  1.600e-03   8.525e-03    -2.796    -2.069     0.727
   MgSO4                  1.392e-03   7.419e-03    -2.856    -2.130     0.727
   SO4-2                  1.212e-03   6.033e-05    -2.917    -4.219    -1.303
   NaSO4-                 5.210e-04   2.855e-03    -3.283    -2.544     0.739
   CaHSO4+                1.764e-08   9.668e-08    -7.753    -7.015     0.739
   HSO4-                  2.072e-09   1.136e-08    -8.684    -7.945     0.739

------------------------------Saturation indices-------------------------------

	Phase               SI log IAP  log KT

	Anhydrite        -0.01   -4.37   -4.36  CaSO4
	Aragonite        -0.14   -8.48   -8.34  CaCO3
	Calcite              0   -8.48   -8.48  CaCO3
	CH4(g)         -140.77 -143.63   -2.86  CH4
	CO2(g)           -1.50   -2.97   -1.47  CO2
	Dolomite             0  -17.09  -17.09  CaMg(CO3)2
	Gypsum               0   -4.58   -4.58  CaSO4:2H2O
	H2(g)           -41.32  -44.47   -3.15  H2
	H2O(g)           -1.62   -0.11    1.51  H2O
	H2S(g)         -138.90 -139.89   -1.00  H2S
	Halite           -0.01    1.57    1.58  NaCl
	O2(g)            -0.70   -3.66   -2.96  O2
	Sulfur         -103.46  -98.58    4.88  S

------------------
End of simulation.
------------------

------------------------------------
Reading input data for simulation 5.
------------------------------------

	EXCHANGE 2
	        equilibrate with solution 2
	        X       0.5
	SURFACE 2
		no_edl
	        equilibrate solution 2
	        SurfOH          0.14     600.    30.
	END
-------------------------------------------------------
Beginning of initial exchange-composition calculations.
-------------------------------------------------------

Exchange 2.	

X                5.000e-01 mol

	                               Equiv-    Equivalent      Log 
	Species             Moles      alents      Fraction     Gamma

	NaX               4.507e-01   4.507e-01   9.014e-01     0.243
	CaX2              2.024e-02   4.048e-02   8.096e-02     0.187
	MgX2              4.418e-03   8.836e-03   1.767e-02     0.517

------------------------------------------------------
Beginning of initial surface-composition calculations.
------------------------------------------------------

Surface 2.	

Surf          
	  1.363e-01  Surface charge, eq
Surf          
	  1.400e-01  moles
	                                   Mole                     Log
	Species               Moles    Fraction    Molality    Molality

	SurfOH2+          1.363e-01       0.974   1.363e-01      -0.865
	SurfOH            3.611e-03       0.026   3.611e-03      -2.442
	SurfH2AsO4        3.454e-05           0   3.454e-05      -4.462
	SurfHAsO4-        2.828e-05           0   2.828e-05      -4.549
	SurfO-            2.192e-06           0   2.192e-06      -5.659
	SurfOHAsO4-3      6.956e-07           0   6.956e-07      -6.158

------------------
End of simulation.
------------------

------------------------------------
Reading input data for simulation 6.
------------------------------------

	SELECTED_OUTPUT
	        file ex4.dummy.sel
	        reset false
	        ph
	USER_PUNCH
	heading        Ca      Mg      Na      Cl      C(4)    SO4     As
	10 PUNCH TOT("Ca")*1e3*40.08
	20 PUNCH TOT("Mg")*1e3*24.312
	30 PUNCH TOT("Na")*1e3*23.
	40 PUNCH TOT("Cl")*1e3*35.45
	50 PUNCH TOT("C(4)")*1e3*61.   # as HCO3-
	60 PUNCH TOT("S(6)")*1e3*96.   # as SO4
	70 PUNCH TOT("As")*1e6*74.296  # ug/L
	END
------------------
End of simulation.
------------------

------------------------------------
Reading input data for simulation 7.
------------------------------------

List of Components:
	1	H
	2	O
	3	As
	4	C
	5	Ca
	6	Cl
	7	Mg
	8	Na
	9	S
	10	Charge
List of master species:
	1	As
	2	C(-4)
	3	C(4)
	4	Ca
	5	Cl
	6	Mg
	7	Na
	8	S(-2)
	9	S(6)
Time 10000. Cell 1: x=              0	y=              0	z=              0
Using solution 1.
Using exchange 1
Using surface 1.
Using pure phase assemblage 1.

-------------------------------Phase assemblage--------------------------------

                                                      Moles in assemblage
Phase                  SI log IAP  log KT      Initial       Final       Delta

Calcite                 0   -8.48   -8.48    1.004e-01   1.008e-01   3.300e-04
Dolomite                0  -17.09  -17.09    1.600e+00   1.600e+00  -1.631e-04

------------------------------Surface composition------------------------------

Surf          
	  1.363e-01  Surface charge, eq
Surf          
	  1.400e-01  moles
	                                   Mole                     Log
	Species               Moles    Fraction    Molality    Molality

	SurfOH2+          1.363e-01       0.974   1.363e-01      -0.865
	SurfOH            3.595e-03       0.026   3.595e-03      -2.444
	SurfH2AsO4        3.462e-05           0   3.462e-05      -4.461
	SurfHAsO4-        2.821e-05           0   2.821e-05      -4.550
	SurfO-            2.172e-06           0   2.172e-06      -5.663
	SurfOHAsO4-3      6.918e-07           0   6.918e-07      -6.160

-----------------------------Exchange composition------------------------------

X                5.000e-01 mol

	                               Equiv-    Equivalent      Log 
	Species             Moles      alents      Fraction     Gamma

	NaX               4.499e-01   4.499e-01   8.998e-01     0.231
	CaX2              2.051e-02   4.101e-02   8.202e-02     0.162
	MgX2              4.539e-03   9.077e-03   1.815e-02     0.486

-----------------------------Solution composition------------------------------

	Elements           Molality       Moles

	As                1.065e-08   1.065e-08
	C                 4.058e-03   4.058e-03
	Ca                4.526e-01   4.526e-01
	Cl                6.493e+00   6.493e+00
	Mg                1.587e-01   1.587e-01
	Na                5.283e+00   5.283e+00
	S                 4.624e-03   4.624e-03

----------------------------Description of solution----------------------------

                                       pH  =   5.711      Charge balance
                                       pe  =  14.951      Adjusted to redox equilibrium
                        Activity of water  =   0.789
                           Ionic strength  =   7.102e+00
                       Mass of water (kg)  =   1.000e+00
                 Total alkalinity (eq/kg)  =   3.829e-03
                       Total CO2 (mol/kg)  =   4.058e-03
                      Temperature (deg C)  =  25.000
                  Electrical balance (eq)  =   3.456e-05
 Percent error, 100*(Cat-|An|)/(Cat+|An|)  =      0
                               Iterations  =   4
                                  Total H  = 1.110163e+02
                                  Total O  = 5.553676e+01

----------------------------Distribution of species----------------------------

                                                   Log       Log         Log 
   Species                 Molality    Activity  Molality  Activity     Gamma

   H+                     2.766e-06   1.945e-06    -5.558    -5.711    -0.153
   OH-                    8.770e-09   4.063e-09    -8.057    -8.391    -0.334
   H2O                    5.551e+01   7.894e-01     1.744    -0.103         0
As               1.065e-08
   H2AsO4-                1.064e-08   5.520e-08    -7.973    -7.258     0.715
   HAsO4-2                4.303e-12   3.112e-09   -11.366    -8.507     2.859
   H3AsO4                 3.636e-12   1.866e-11   -11.439   -10.729     0.710
   AsO4-3                 1.865e-21   5.061e-15   -20.729   -14.296     6.434
C(-4)            0.000e+00
   CH4                    0.000e+00   0.000e+00  -144.345  -143.635     0.710
C(4)             4.058e-03
   CaHCO3+                3.025e-03   1.753e-03    -2.519    -2.756    -0.237
   HCO3-                  3.647e-04   2.113e-04    -3.438    -3.675    -0.237
   MgHCO3+                2.296e-04   1.191e-03    -3.639    -2.924     0.715
   CO2                    2.281e-04   1.170e-03    -3.642    -2.932     0.710
   NaHCO3                 2.082e-04   1.068e-03    -3.682    -2.971     0.710
   CaCO3                  1.084e-06   5.565e-06    -5.965    -5.255     0.710
   MgCO3                  4.563e-07   2.341e-06    -6.341    -5.631     0.710
   NaCO3-                 1.645e-07   8.531e-07    -6.784    -6.069     0.715
   CO3-2                  4.524e-08   5.095e-09    -7.344    -8.293    -0.948
Ca               4.526e-01
   Ca+2                   4.480e-01   6.502e-01    -0.349    -0.187     0.162
   CaHCO3+                3.025e-03   1.753e-03    -2.519    -2.756    -0.237
   CaSO4                  1.545e-03   7.929e-03    -2.811    -2.101     0.710
   CaCO3                  1.084e-06   5.565e-06    -5.965    -5.255     0.710
   CaHSO4+                1.742e-08   9.033e-08    -7.759    -7.044     0.715
   CaOH+                  8.445e-09   4.380e-08    -8.073    -7.359     0.715
Cl               6.493e+00
   Cl-                    6.493e+00   3.844e+00     0.812     0.585    -0.228
H(0)             0.000e+00
   H2                     0.000e+00   0.000e+00   -45.185   -44.475     0.710
Mg               1.587e-01
   Mg+2                   1.572e-01   4.816e-01    -0.804    -0.317     0.486
   MgSO4                  1.345e-03   6.900e-03    -2.871    -2.161     0.710
   MgHCO3+                2.296e-04   1.191e-03    -3.639    -2.924     0.715
   MgCO3                  4.563e-07   2.341e-06    -6.341    -5.631     0.710
   MgOH+                  1.369e-07   7.098e-07    -6.864    -6.149     0.715
Na               5.283e+00
   Na+                    5.282e+00   8.992e+00     0.723     0.954     0.231
   NaSO4-                 5.311e-04   2.754e-03    -3.275    -2.560     0.715
   NaHCO3                 2.082e-04   1.068e-03    -3.682    -2.971     0.710
   NaCO3-                 1.645e-07   8.531e-07    -6.784    -6.069     0.715
   NaOH                   4.700e-09   2.412e-08    -8.328    -7.618     0.710
O(0)             9.008e-05
   O2                     4.504e-05   2.311e-04    -4.346    -3.636     0.710
S(-2)            0.000e+00
   H2S                    0.000e+00   0.000e+00  -140.642  -139.932     0.710
   HS-                    0.000e+00   0.000e+00  -140.829  -141.163    -0.334
   S-2                    0.000e+00   0.000e+00  -147.359  -148.369    -1.010
S(6)             4.624e-03
   CaSO4                  1.545e-03   7.929e-03    -2.811    -2.101     0.710
   MgSO4                  1.345e-03   6.900e-03    -2.871    -2.161     0.710
   SO4-2                  1.203e-03   6.112e-05    -2.920    -4.214    -1.294
   NaSO4-                 5.311e-04   2.754e-03    -3.275    -2.560     0.715
   CaHSO4+                1.742e-08   9.033e-08    -7.759    -7.044     0.715
   HSO4-                  2.228e-09   1.156e-08    -8.652    -7.937     0.715

------------------------------Saturation indices-------------------------------

	Phase               SI log IAP  log KT

	Anhydrite        -0.04   -4.40   -4.36  CaSO4
	Aragonite        -0.14   -8.48   -8.34  CaCO3
	Calcite              0   -8.48   -8.48  CaCO3
	CH4(g)         -140.77 -143.63   -2.86  CH4
	CO2(g)           -1.46   -2.93   -1.47  CO2
	Dolomite             0  -17.09  -17.09  CaMg(CO3)2
	Gypsum           -0.03   -4.61   -4.58  CaSO4:2H2O
	H2(g)           -41.32  -44.47   -3.15  H2
	H2O(g)           -1.61   -0.10    1.51  H2O
	H2S(g)         -138.94 -139.93   -1.00  H2S
	Halite           -0.04    1.54    1.58  NaCl
	O2(g)            -0.68   -3.64   -2.96  O2
	Sulfur         -103.49  -98.61    4.88  S

Time 10000. Cell 4: x=          18000	y=              0	z=              0
Using solution 4.
Using exchange 4
Using surface 4.
Using pure phase assemblage 4.

-------------------------------Phase assemblage--------------------------------

                                                      Moles in assemblage
Phase                  SI log IAP  log KT      Initial       Final       Delta

Calcite                 0   -8.48   -8.48    1.322e-01   1.380e-01   5.829e-03
Dolomite                0  -17.09  -17.09    1.584e+00   1.581e+00  -3.111e-03

------------------------------Surface composition------------------------------

Surf          
	  1.348e-01  Surface charge, eq
Surf          
	  1.400e-01  moles
	                                   Mole                     Log
	Species               Moles    Fraction    Molality    Molality

	SurfOH2+          1.348e-01       0.963   1.348e-01      -0.870
	SurfOH            5.115e-03       0.037   5.115e-03      -2.291
	SurfHAsO4-        3.323e-05           0   3.323e-05      -4.478
	SurfH2AsO4        2.834e-05           0   2.834e-05      -4.548
	SurfO-            4.446e-06           0   4.446e-06      -5.352
	SurfOHAsO4-3      1.928e-06           0   1.928e-06      -5.715

-----------------------------Exchange composition------------------------------

X                5.000e-01 mol

	                               Equiv-    Equivalent      Log 
	Species             Moles      alents      Fraction     Gamma

	NaX               4.182e-01   4.182e-01   8.364e-01    -0.028
	CaX2              3.123e-02   6.247e-02   1.249e-01    -0.390
	MgX2              9.675e-03   1.935e-02   3.870e-02    -0.212

-----------------------------Solution composition------------------------------

	Elements           Molality       Moles

	As                3.620e-08   3.620e-08
	C                 7.786e-03   7.786e-03
	Ca                1.765e-01   1.765e-01
	Cl                2.993e+00   2.993e+00
	Mg                8.639e-02   8.640e-02
	Na                2.481e+00   2.481e+00
	S                 2.258e-03   2.258e-03

----------------------------Description of solution----------------------------

                                       pH  =   5.869      Charge balance
                                       pe  =  14.790      Adjusted to redox equilibrium
                        Activity of water  =   0.902
                           Ionic strength  =   3.259e+00
                       Mass of water (kg)  =   1.000e+00
                 Total alkalinity (eq/kg)  =   5.647e-03
                       Total CO2 (mol/kg)  =   7.786e-03
                      Temperature (deg C)  =  25.000
                  Electrical balance (eq)  =   3.555e-03
 Percent error, 100*(Cat-|An|)/(Cat+|An|)  =   0.06
                               Iterations  =   5
                                  Total H  = 1.110210e+02
                                  Total O  = 5.553820e+01

----------------------------Distribution of species----------------------------

                                                   Log       Log         Log 
   Species                 Molality    Activity  Molality  Activity     Gamma

   H+                     1.888e-06   1.352e-06    -5.724    -5.869    -0.145
   OH-                    1.331e-08   6.683e-09    -7.876    -8.175    -0.299
   H2O                    5.551e+01   9.024e-01     1.744    -0.045         0
As               3.620e-08
   H2AsO4-                3.531e-08   5.225e-08    -7.452    -7.282     0.170
   HAsO4-2                8.839e-10   4.238e-09    -9.054    -8.373     0.681
   H3AsO4                 5.795e-12   1.227e-11   -11.237   -10.911     0.326
   AsO4-3                 2.914e-16   9.915e-15   -15.535   -14.004     1.532
C(-4)            0.000e+00
   CH4                    0.000e+00   0.000e+00  -143.464  -143.138     0.326
C(4)             7.786e-03
   HCO3-                  2.231e-03   1.348e-03    -2.652    -2.870    -0.219
   CO2                    2.143e-03   4.539e-03    -2.669    -2.343     0.326
   CaHCO3+                2.017e-03   1.218e-03    -2.695    -2.914    -0.219
   NaHCO3                 8.311e-04   1.760e-03    -3.080    -2.754     0.326
   MgHCO3+                5.592e-04   8.275e-04    -3.252    -3.082     0.170
   CaCO3                  2.628e-06   5.565e-06    -5.580    -5.255     0.326
   NaCO3-                 1.366e-06   2.022e-06    -5.864    -5.694     0.170
   MgCO3                  1.106e-06   2.341e-06    -5.956    -5.631     0.326
   CO3-2                  3.511e-07   4.676e-08    -6.455    -7.330    -0.876
Ca               1.765e-01
   Ca+2                   1.740e-01   7.085e-02    -0.759    -1.150    -0.390
   CaHCO3+                2.017e-03   1.218e-03    -2.695    -2.914    -0.219
   CaSO4                  4.742e-04   1.004e-03    -3.324    -2.998     0.326
   CaCO3                  2.628e-06   5.565e-06    -5.580    -5.255     0.326
   CaHSO4+                5.374e-09   7.953e-09    -8.270    -8.099     0.170
   CaOH+                  5.305e-09   7.850e-09    -8.275    -8.105     0.170
Cl               2.993e+00
   Cl-                    2.993e+00   1.682e+00     0.476     0.226    -0.250
H(0)             0.000e+00
   H2                     0.000e+00   0.000e+00   -44.794   -44.469     0.326
Mg               8.639e-02
   Mg+2                   8.542e-02   5.248e-02    -1.068    -1.280    -0.212
   MgHCO3+                5.592e-04   8.275e-04    -3.252    -3.082     0.170
   MgSO4                  4.127e-04   8.740e-04    -3.384    -3.058     0.326
   MgCO3                  1.106e-06   2.341e-06    -5.956    -5.631     0.326
   MgOH+                  8.596e-08   1.272e-07    -7.066    -6.895     0.170
Na               2.481e+00
   Na+                    2.479e+00   2.323e+00     0.394     0.366    -0.028
   NaHCO3                 8.311e-04   1.760e-03    -3.080    -2.754     0.326
   NaSO4-                 5.588e-04   8.269e-04    -3.253    -3.083     0.170
   NaCO3-                 1.366e-06   2.022e-06    -5.864    -5.694     0.170
   NaOH                   4.837e-09   1.024e-08    -8.315    -7.990     0.326
O(0)             2.773e-04
   O2                     1.387e-04   2.937e-04    -3.858    -3.532     0.326
S(-2)            0.000e+00
   H2S                    0.000e+00   0.000e+00  -140.717  -140.391     0.326
   HS-                    0.000e+00   0.000e+00  -141.164  -141.463    -0.299
   S-2                    0.000e+00   0.000e+00  -147.584  -148.512    -0.928
S(6)             2.258e-03
   SO4-2                  8.124e-04   7.104e-05    -3.090    -4.148    -1.058
   NaSO4-                 5.588e-04   8.269e-04    -3.253    -3.083     0.170
   CaSO4                  4.742e-04   1.004e-03    -3.324    -2.998     0.326
   MgSO4                  4.127e-04   8.740e-04    -3.384    -3.058     0.326
   HSO4-                  6.309e-09   9.336e-09    -8.200    -8.030     0.170
   CaHSO4+                5.374e-09   7.953e-09    -8.270    -8.099     0.170

------------------------------Saturation indices-------------------------------

	Phase               SI log IAP  log KT

	Anhydrite        -0.94   -5.30   -4.36  CaSO4
	Aragonite        -0.14   -8.48   -8.34  CaCO3
	Calcite              0   -8.48   -8.48  CaCO3
	CH4(g)         -140.28 -143.14   -2.86  CH4
	CO2(g)           -0.88   -2.34   -1.47  CO2
	Dolomite             0  -17.09  -17.09  CaMg(CO3)2
	Gypsum           -0.81   -5.39   -4.58  CaSO4:2H2O
	H2(g)           -41.32  -44.47   -3.15  H2
	H2O(g)           -1.55   -0.04    1.51  H2O
	H2S(g)         -139.39 -140.39   -1.00  H2S
	Halite           -0.99    0.59    1.58  NaCl
	O2(g)            -0.57   -3.53   -2.96  O2
	Sulfur         -103.95  -99.07    4.88  S

Time 10000. Cell 7: x=          36000	y=              0	z=              0
Using solution 7.
Using exchange 7
Using surface 7.
Using pure phase assemblage 7.

-------------------------------Phase assemblage--------------------------------

                                                      Moles in assemblage
Phase                  SI log IAP  log KT      Initial       Final       Delta

Calcite                 0   -8.48   -8.48    1.506e-01   1.490e-01  -1.649e-03
Dolomite                0  -17.09  -17.09    1.570e+00   1.568e+00  -2.279e-03

------------------------------Surface composition------------------------------

Surf          
	  1.141e-01  Surface charge, eq
Surf          
	  1.400e-01  moles
	                                   Mole                     Log
	Species               Moles    Fraction    Molality    Molality

	SurfOH2+          1.144e-01       0.817   1.144e-01      -0.942
	SurfOH            2.543e-02       0.182   2.543e-02      -1.595
	SurfO-            1.296e-04       0.001   1.296e-04      -3.888
	SurfOHAsO4-3      4.165e-05           0   4.164e-05      -4.380
	SurfHAsO4-        1.903e-05           0   1.902e-05      -4.721
	SurfH2AsO4        2.769e-06           0   2.768e-06      -5.558

-----------------------------Exchange composition------------------------------

X                5.000e-01 mol

	                               Equiv-    Equivalent      Log 
	Species             Moles      alents      Fraction     Gamma

	NaX               3.216e-01   3.216e-01   6.433e-01    -0.138
	CaX2              6.233e-02   1.247e-01   2.493e-01    -0.530
	MgX2              2.686e-02   5.372e-02   1.074e-01    -0.495

-----------------------------Solution composition------------------------------

	Elements           Molality       Moles

	As                1.971e-08   1.971e-08
	C                 1.815e-02   1.815e-02
	Ca                6.459e-03   6.460e-03
	Cl                2.473e-01   2.473e-01
	Mg                4.411e-03   4.411e-03
	Na                2.546e-01   2.546e-01
	S                 4.021e-04   4.022e-04

----------------------------Description of solution----------------------------

                                       pH  =   6.637      Charge balance
                                       pe  =  13.973      Adjusted to redox equilibrium
                        Activity of water  =   0.991
                           Ionic strength  =   2.782e-01
                       Mass of water (kg)  =   1.000e+00
                 Total alkalinity (eq/kg)  =   1.377e-02
                       Total CO2 (mol/kg)  =   1.815e-02
                      Temperature (deg C)  =  25.000
                  Electrical balance (eq)  =   1.451e-02
 Percent error, 100*(Cat-|An|)/(Cat+|An|)  =   2.71
                               Iterations  =   5
                                  Total H  = 1.110328e+02
                                  Total O  = 5.556164e+01

----------------------------Distribution of species----------------------------

                                                   Log       Log         Log 
   Species                 Molality    Activity  Molality  Activity     Gamma

   H+                     2.937e-07   2.306e-07    -6.532    -6.637    -0.105
   OH-                    6.322e-08   4.302e-08    -7.199    -7.366    -0.167
   H2O                    5.551e+01   9.910e-01     1.744    -0.004         0
As               1.971e-08
   HAsO4-2                1.073e-08   3.141e-09    -7.969    -8.503    -0.533
   H2AsO4-                8.982e-09   6.607e-09    -8.047    -8.180    -0.133
   AsO4-3                 6.830e-13   4.307e-14   -12.166   -13.366    -1.200
   H3AsO4                 2.484e-13   2.648e-13   -12.605   -12.577     0.028
C(-4)            0.000e+00
   CH4                    0.000e+00   0.000e+00  -142.842  -142.814     0.028
C(4)             1.815e-02
   HCO3-                  1.237e-02   8.984e-03    -1.908    -2.047    -0.139
   CO2                    4.409e-03   4.701e-03    -2.356    -2.328     0.028
   NaHCO3                 8.751e-04   9.329e-04    -3.058    -3.030     0.028
   CaHCO3+                2.861e-04   2.078e-04    -3.543    -3.682    -0.139
   MgHCO3+                1.919e-04   1.412e-04    -3.717    -3.850    -0.133
   NaCO3-                 8.540e-06   6.282e-06    -5.069    -5.202    -0.133
   CO3-2                  6.561e-06   1.827e-06    -5.183    -5.738    -0.555
   CaCO3                  5.220e-06   5.565e-06    -5.282    -5.255     0.028
   MgCO3                  2.196e-06   2.341e-06    -5.658    -5.631     0.028
Ca               6.459e-03
   Ca+2                   6.144e-03   1.813e-03    -2.212    -2.742    -0.530
   CaHCO3+                2.861e-04   2.078e-04    -3.543    -3.682    -0.139
   CaSO4                  2.371e-05   2.527e-05    -4.625    -4.597     0.028
   CaCO3                  5.220e-06   5.565e-06    -5.282    -5.255     0.028
   CaOH+                  1.758e-09   1.293e-09    -8.755    -8.888    -0.133
   CaHSO4+                4.642e-11   3.415e-11   -10.333   -10.467    -0.133
Cl               2.473e-01
   Cl-                    2.473e-01   1.699e-01    -0.607    -0.770    -0.163
H(0)             0.000e+00
   H2                     0.000e+00   0.000e+00   -44.399   -44.371     0.028
Mg               4.411e-03
   Mg+2                   4.196e-03   1.343e-03    -2.377    -2.872    -0.495
   MgHCO3+                1.919e-04   1.412e-04    -3.717    -3.850    -0.133
   MgSO4                  2.063e-05   2.200e-05    -4.685    -4.658     0.028
   MgCO3                  2.196e-06   2.341e-06    -5.658    -5.631     0.028
   MgOH+                  2.849e-08   2.096e-08    -7.545    -7.679    -0.133
Na               2.546e-01
   Na+                    2.537e-01   1.847e-01    -0.596    -0.734    -0.138
   NaHCO3                 8.751e-04   9.329e-04    -3.058    -3.030     0.028
   NaSO4-                 8.789e-05   6.466e-05    -4.056    -4.189    -0.133
   NaCO3-                 8.540e-06   6.282e-06    -5.069    -5.202    -0.133
   NaOH                   4.917e-09   5.243e-09    -8.308    -8.280     0.028
O(0)             4.242e-04
   O2                     2.121e-04   2.261e-04    -3.673    -3.646     0.028
S(-2)            0.000e+00
   H2S                    0.000e+00   0.000e+00  -141.735  -141.707     0.028
   HS-                    0.000e+00   0.000e+00  -141.844  -142.012    -0.167
   S-2                    0.000e+00   0.000e+00  -147.717  -148.293    -0.576
S(6)             4.021e-04
   SO4-2                  2.699e-04   6.986e-05    -3.569    -4.156    -0.587
   NaSO4-                 8.789e-05   6.466e-05    -4.056    -4.189    -0.133
   CaSO4                  2.371e-05   2.527e-05    -4.625    -4.597     0.028
   MgSO4                  2.063e-05   2.200e-05    -4.685    -4.658     0.028
   HSO4-                  2.129e-09   1.566e-09    -8.672    -8.805    -0.133
   CaHSO4+                4.642e-11   3.415e-11   -10.333   -10.467    -0.133

------------------------------Saturation indices-------------------------------

	Phase               SI log IAP  log KT

	Anhydrite        -2.54   -6.90   -4.36  CaSO4
	Aragonite        -0.14   -8.48   -8.34  CaCO3
	Calcite              0   -8.48   -8.48  CaCO3
	CH4(g)         -139.95 -142.81   -2.86  CH4
	CO2(g)           -0.86   -2.33   -1.47  CO2
	Dolomite             0  -17.09  -17.09  CaMg(CO3)2
	Gypsum           -2.32   -6.91   -4.58  CaSO4:2H2O
	H2(g)           -41.22  -44.37   -3.15  H2
	H2O(g)           -1.51       0    1.51  H2O
	H2S(g)         -140.71 -141.71   -1.00  H2S
	Halite           -3.09   -1.50    1.58  NaCl
	O2(g)            -0.69   -3.65   -2.96  O2
	Sulfur         -105.37 -100.49    4.88  S

Time 10000. Cell 49: x=              0	y=          18000	z=              0
Using solution 49.
Using exchange 49
Using surface 49.
Using pure phase assemblage 49.

-------------------------------Phase assemblage--------------------------------

                                                      Moles in assemblage
Phase                  SI log IAP  log KT      Initial       Final       Delta

Calcite                 0   -8.48   -8.48    1.008e-01   1.015e-01   6.273e-04
Dolomite                0  -17.09  -17.09    1.600e+00   1.599e+00  -3.102e-04

------------------------------Surface composition------------------------------

Surf          
	  1.363e-01  Surface charge, eq
Surf          
	  1.400e-01  moles
	                                   Mole                     Log
	Species               Moles    Fraction    Molality    Molality

	SurfOH2+          1.364e-01       0.974   1.364e-01      -0.865
	SurfOH            3.580e-03       0.026   3.580e-03      -2.446
	SurfH2AsO4        3.469e-05           0   3.469e-05      -4.460
	SurfHAsO4-        2.814e-05           0   2.814e-05      -4.551
	SurfO-            2.153e-06           0   2.153e-06      -5.667
	SurfOHAsO4-3      6.866e-07           0   6.866e-07      -6.163

-----------------------------Exchange composition------------------------------

X                5.000e-01 mol

	                               Equiv-    Equivalent      Log 
	Species             Moles      alents      Fraction     Gamma

	NaX               4.494e-01   4.494e-01   8.989e-01     0.224
	CaX2              2.067e-02   4.134e-02   8.268e-02     0.147
	MgX2              4.614e-03   9.227e-03   1.845e-02     0.468

-----------------------------Solution composition------------------------------

	Elements           Molality       Moles

	As                1.108e-08   1.108e-08
	C                 4.128e-03   4.128e-03
	Ca                4.449e-01   4.449e-01
	Cl                6.403e+00   6.403e+00
	Mg                1.573e-01   1.573e-01
	Na                5.211e+00   5.211e+00
	S                 4.563e-03   4.563e-03

----------------------------Description of solution----------------------------

                                       pH  =   5.709      Charge balance
                                       pe  =  14.955      Adjusted to redox equilibrium
                        Activity of water  =   0.792
                           Ionic strength  =   7.003e+00
                       Mass of water (kg)  =   1.000e+00
                 Total alkalinity (eq/kg)  =   3.881e-03
                       Total CO2 (mol/kg)  =   4.128e-03
                      Temperature (deg C)  =  25.000
                  Electrical balance (eq)  =   6.975e-05
 Percent error, 100*(Cat-|An|)/(Cat+|An|)  =      0
                               Iterations  =   4
                                  Total H  = 1.110163e+02
                                  Total O  = 5.553672e+01

----------------------------Distribution of species----------------------------

                                                   Log       Log         Log 
   Species                 Molality    Activity  Molality  Activity     Gamma

   H+                     2.777e-06   1.953e-06    -5.556    -5.709    -0.153
   OH-                    8.752e-09   4.060e-09    -8.058    -8.391    -0.334
   H2O                    5.551e+01   7.923e-01     1.744    -0.101         0
As               1.108e-08
   H2AsO4-                1.107e-08   5.551e-08    -7.956    -7.256     0.700
   HAsO4-2                4.921e-12   3.116e-09   -11.308    -8.506     2.802
   H3AsO4                 3.757e-12   1.884e-11   -11.425   -10.725     0.700
   AsO4-3                 2.508e-21   5.044e-15   -20.601   -14.297     6.304
C(-4)            0.000e+00
   CH4                    0.000e+00   0.000e+00  -144.332  -143.632     0.700
C(4)             4.128e-03
   CaHCO3+                3.037e-03   1.760e-03    -2.518    -2.754    -0.237
   HCO3-                  3.856e-04   2.235e-04    -3.414    -3.651    -0.237
   CO2                    2.471e-04   1.239e-03    -3.607    -2.907     0.700
   MgHCO3+                2.384e-04   1.196e-03    -3.623    -2.922     0.700
   NaHCO3                 2.188e-04   1.097e-03    -3.660    -2.960     0.700
   CaCO3                  1.110e-06   5.565e-06    -5.955    -5.255     0.700
   MgCO3                  4.668e-07   2.341e-06    -6.331    -5.631     0.700
   NaCO3-                 1.739e-07   8.723e-07    -6.760    -6.059     0.700
   CO3-2                  4.752e-08   5.367e-09    -7.323    -8.270    -0.947
Ca               4.449e-01
   Ca+2                   4.403e-01   6.173e-01    -0.356    -0.210     0.147
   CaHCO3+                3.037e-03   1.760e-03    -2.518    -2.754    -0.237
   CaSO4                  1.512e-03   7.585e-03    -2.820    -2.120     0.700
   CaCO3                  1.110e-06   5.565e-06    -5.955    -5.255     0.700
   CaHSO4+                1.730e-08   8.680e-08    -7.762    -7.061     0.700
   CaOH+                  8.283e-09   4.155e-08    -8.082    -7.381     0.700
Cl               6.403e+00
   Cl-                    6.403e+00   3.783e+00     0.806     0.578    -0.228
H(0)             0.000e+00
   H2                     0.000e+00   0.000e+00   -45.180   -44.479     0.700
Mg               1.573e-01
   Mg+2                   1.558e-01   4.572e-01    -0.808    -0.340     0.468
   MgSO4                  1.316e-03   6.601e-03    -2.881    -2.180     0.700
   MgHCO3+                2.384e-04   1.196e-03    -3.623    -2.922     0.700
   MgCO3                  4.668e-07   2.341e-06    -6.331    -5.631     0.700
   MgOH+                  1.342e-07   6.733e-07    -6.872    -6.172     0.700
Na               5.211e+00
   Na+                    5.211e+00   8.729e+00     0.717     0.941     0.224
   NaSO4-                 5.371e-04   2.694e-03    -3.270    -2.570     0.700
   NaHCO3                 2.188e-04   1.097e-03    -3.660    -2.960     0.700
   NaCO3-                 1.739e-07   8.723e-07    -6.760    -6.059     0.700
   NaOH                   4.664e-09   2.339e-08    -8.331    -7.631     0.700
O(0)             9.490e-05
   O2                     4.745e-05   2.380e-04    -4.324    -3.623     0.700
S(-2)            0.000e+00
   H2S                    0.000e+00   0.000e+00  -140.651  -139.950     0.700
   HS-                    0.000e+00   0.000e+00  -140.849  -141.183    -0.334
   S-2                    0.000e+00   0.000e+00  -147.383  -148.392    -1.009
S(6)             4.563e-03
   CaSO4                  1.512e-03   7.585e-03    -2.820    -2.120     0.700
   MgSO4                  1.316e-03   6.601e-03    -2.881    -2.180     0.700
   SO4-2                  1.198e-03   6.159e-05    -2.922    -4.211    -1.289
   NaSO4-                 5.371e-04   2.694e-03    -3.270    -2.570     0.700
   CaHSO4+                1.730e-08   8.680e-08    -7.762    -7.061     0.700
   HSO4-                  2.332e-09   1.170e-08    -8.632    -7.932     0.700

------------------------------Saturation indices-------------------------------

	Phase               SI log IAP  log KT

	Anhydrite        -0.06   -4.42   -4.36  CaSO4
	Aragonite        -0.14   -8.48   -8.34  CaCO3
	Calcite              0   -8.48   -8.48  CaCO3
	CH4(g)         -140.77 -143.63   -2.86  CH4
	CO2(g)           -1.44   -2.91   -1.47  CO2
	Dolomite             0  -17.09  -17.09  CaMg(CO3)2
	Gypsum           -0.04   -4.62   -4.58  CaSO4:2H2O
	H2(g)           -41.33  -44.48   -3.15  H2
	H2O(g)           -1.61   -0.10    1.51  H2O
	H2S(g)         -138.95 -139.95   -1.00  H2S
	Halite           -0.06    1.52    1.58  NaCl
	O2(g)            -0.66   -3.62   -2.96  O2
	Sulfur         -103.50  -98.62    4.88  S

Time 10000. Cell 52: x=          18000	y=          18000	z=              0
Using solution 52.
Using exchange 52
Using surface 52.
Using pure phase assemblage 52.

-------------------------------Phase assemblage--------------------------------

                                                      Moles in assemblage
Phase                  SI log IAP  log KT      Initial       Final       Delta

Calcite                 0   -8.48   -8.48    1.351e-01   1.421e-01   6.945e-03
Dolomite                0  -17.09  -17.09    1.582e+00   1.579e+00  -3.626e-03

------------------------------Surface composition------------------------------

Surf          
	  1.349e-01  Surface charge, eq
Surf          
	  1.400e-01  moles
	                                   Mole                     Log
	Species               Moles    Fraction    Molality    Molality

	SurfOH2+          1.349e-01       0.964   1.349e-01      -0.870
	SurfOH            5.034e-03       0.036   5.034e-03      -2.298
	SurfHAsO4-        3.302e-05           0   3.301e-05      -4.481
	SurfH2AsO4        2.863e-05           0   2.863e-05      -4.543
	SurfO-            4.304e-06           0   4.304e-06      -5.366
	SurfOHAsO4-3      1.855e-06           0   1.855e-06      -5.732

-----------------------------Exchange composition------------------------------

X                5.000e-01 mol

	                               Equiv-    Equivalent      Log 
	Species             Moles      alents      Fraction     Gamma

	NaX               4.178e-01   4.178e-01   8.356e-01    -0.030
	CaX2              3.135e-02   6.271e-02   1.254e-01    -0.395
	MgX2              9.743e-03   1.949e-02   3.897e-02    -0.217

-----------------------------Solution composition------------------------------

	Elements           Molality       Moles

	As                3.699e-08   3.699e-08
	C                 8.095e-03   8.095e-03
	Ca                1.741e-01   1.741e-01
	Cl                2.961e+00   2.962e+00
	Mg                8.549e-02   8.549e-02
	Na                2.457e+00   2.457e+00
	S                 2.237e-03   2.237e-03

----------------------------Description of solution----------------------------

                                       pH  =   5.862      Charge balance
                                       pe  =  14.797      Adjusted to redox equilibrium
                        Activity of water  =   0.903
                           Ionic strength  =   3.225e+00
                       Mass of water (kg)  =   1.000e+00
                 Total alkalinity (eq/kg)  =   5.814e-03
                       Total CO2 (mol/kg)  =   8.095e-03
                      Temperature (deg C)  =  25.000
                  Electrical balance (eq)  =   3.986e-03
 Percent error, 100*(Cat-|An|)/(Cat+|An|)  =   0.07
                               Iterations  =   5
                                  Total H  = 1.110214e+02
                                  Total O  = 5.553904e+01

----------------------------Distribution of species----------------------------

                                                   Log       Log         Log 
   Species                 Molality    Activity  Molality  Activity     Gamma

   H+                     1.919e-06   1.374e-06    -5.717    -5.862    -0.145
   OH-                    1.309e-08   6.581e-09    -7.883    -8.182    -0.299
   H2O                    5.551e+01   9.034e-01     1.744    -0.044         0
As               3.699e-08
   H2AsO4-                3.606e-08   5.280e-08    -7.443    -7.277     0.166
   HAsO4-2                9.167e-10   4.213e-09    -9.038    -8.375     0.662
   H3AsO4                 6.001e-12   1.261e-11   -11.222   -10.899     0.322
   AsO4-3                 3.134e-16   9.694e-15   -15.504   -14.013     1.490
C(-4)            0.000e+00
   CH4                    0.000e+00   0.000e+00  -143.433  -143.111     0.322
C(4)             8.095e-03
   HCO3-                  2.322e-03   1.403e-03    -2.634    -2.853    -0.219
   CO2                    2.284e-03   4.800e-03    -2.641    -2.319     0.322
   CaHCO3+                2.049e-03   1.238e-03    -2.688    -2.907    -0.219
   NaHCO3                 8.596e-04   1.806e-03    -3.066    -2.743     0.322
   MgHCO3+                5.746e-04   8.413e-04    -3.241    -3.075     0.166
   CaCO3                  2.648e-06   5.565e-06    -5.577    -5.255     0.322
   NaCO3-                 1.394e-06   2.041e-06    -5.856    -5.690     0.166
   MgCO3                  1.114e-06   2.341e-06    -5.953    -5.631     0.322
   CO3-2                  3.587e-07   4.789e-08    -6.445    -7.320    -0.874
Ca               1.741e-01
   Ca+2                   1.716e-01   6.917e-02    -0.766    -1.160    -0.395
   CaHCO3+                2.049e-03   1.238e-03    -2.688    -2.907    -0.219
   CaSO4                  4.666e-04   9.805e-04    -3.331    -3.009     0.322
   CaCO3                  2.648e-06   5.565e-06    -5.577    -5.255     0.322
   CaHSO4+                5.392e-09   7.894e-09    -8.268    -8.103     0.166
   CaOH+                  5.154e-09   7.546e-09    -8.288    -8.122     0.166
Cl               2.961e+00
   Cl-                    2.961e+00   1.665e+00     0.472     0.221    -0.250
H(0)             0.000e+00
   H2                     0.000e+00   0.000e+00   -44.790   -44.468     0.322
Mg               8.549e-02
   Mg+2                   8.451e-02   5.123e-02    -1.073    -1.290    -0.217
   MgHCO3+                5.746e-04   8.413e-04    -3.241    -3.075     0.166
   MgSO4                  4.061e-04   8.533e-04    -3.391    -3.069     0.322
   MgCO3                  1.114e-06   2.341e-06    -5.953    -5.631     0.322
   MgOH+                  8.352e-08   1.223e-07    -7.078    -6.913     0.166
Na               2.457e+00
   Na+                    2.455e+00   2.289e+00     0.390     0.360    -0.030
   NaHCO3                 8.596e-04   1.806e-03    -3.066    -2.743     0.322
   NaSO4-                 5.566e-04   8.150e-04    -3.254    -3.089     0.166
   NaCO3-                 1.394e-06   2.041e-06    -5.856    -5.690     0.166
   NaOH                   4.731e-09   9.940e-09    -8.325    -8.003     0.322
O(0)             2.790e-04
   O2                     1.395e-04   2.931e-04    -3.855    -3.533     0.322
S(-2)            0.000e+00
   H2S                    0.000e+00   0.000e+00  -140.697  -140.375     0.322
   HS-                    0.000e+00   0.000e+00  -141.156  -141.455    -0.299
   S-2                    0.000e+00   0.000e+00  -147.584  -148.511    -0.927
S(6)             2.237e-03
   SO4-2                  8.077e-04   7.105e-05    -3.093    -4.148    -1.056
   NaSO4-                 5.566e-04   8.150e-04    -3.254    -3.089     0.166
   CaSO4                  4.666e-04   9.805e-04    -3.331    -3.009     0.322
   MgSO4                  4.061e-04   8.533e-04    -3.391    -3.069     0.322
   HSO4-                  6.484e-09   9.493e-09    -8.188    -8.023     0.166
   CaHSO4+                5.392e-09   7.894e-09    -8.268    -8.103     0.166

------------------------------Saturation indices-------------------------------

	Phase               SI log IAP  log KT

	Anhydrite        -0.95   -5.31   -4.36  CaSO4
	Aragonite        -0.14   -8.48   -8.34  CaCO3
	Calcite              0   -8.48   -8.48  CaCO3
	CH4(g)         -140.25 -143.11   -2.86  CH4
	CO2(g)           -0.85   -2.32   -1.47  CO2
	Dolomite             0  -17.09  -17.09  CaMg(CO3)2
	Gypsum           -0.82   -5.40   -4.58  CaSO4:2H2O
	H2(g)           -41.32  -44.47   -3.15  H2
	H2O(g)           -1.55   -0.04    1.51  H2O
	H2S(g)         -139.38 -140.37   -1.00  H2S
	Halite           -1.00    0.58    1.58  NaCl
	O2(g)            -0.57   -3.53   -2.96  O2
	Sulfur         -103.94  -99.06    4.88  S

Time 10000. Cell 55: x=          36000	y=          18000	z=              0
Using solution 55.
Using exchange 55
Using surface 55.
Using pure phase assemblage 55.

-------------------------------Phase assemblage--------------------------------

                                                      Moles in assemblage
Phase                  SI log IAP  log KT      Initial       Final       Delta

Calcite                 0   -8.48   -8.48    1.457e-01   1.431e-01  -2.610e-03
Dolomite                0  -17.09  -17.09    1.570e+00   1.567e+00  -2.977e-03

------------------------------Surface composition------------------------------

Surf          
	  1.050e-01  Surface charge, eq
Surf          
	  1.400e-01  moles
	                                   Mole                     Log
	Species               Moles    Fraction    Molality    Molality

	SurfOH2+          1.054e-01       0.753   1.054e-01      -0.977
	SurfOH            3.425e-02       0.245   3.425e-02      -1.465
	SurfO-            2.548e-04       0.002   2.548e-04      -3.594
	SurfOHAsO4-3      5.139e-05           0   5.138e-05      -4.289
	SurfHAsO4-        1.096e-05           0   1.096e-05      -4.960
	SurfH2AsO4        1.092e-06           0   1.092e-06      -5.962

-----------------------------Exchange composition------------------------------

X                5.000e-01 mol

	                               Equiv-    Equivalent      Log 
	Species             Moles      alents      Fraction     Gamma

	NaX               2.978e-01   2.978e-01   5.956e-01    -0.121
	CaX2              7.010e-02   1.402e-01   2.804e-01    -0.463
	MgX2              3.100e-02   6.201e-02   1.240e-01    -0.439

-----------------------------Solution composition------------------------------

	Elements           Molality       Moles

	As                9.719e-09   9.720e-09
	C                 2.020e-02   2.021e-02
	Ca                3.007e-03   3.007e-03
	Cl                1.276e-01   1.276e-01
	Mg                2.105e-03   2.106e-03
	Na                1.503e-01   1.503e-01
	S                 3.212e-04   3.212e-04

----------------------------Description of solution----------------------------

                                       pH  =   6.802      Charge balance
                                       pe  =  13.807      Adjusted to redox equilibrium
                        Activity of water  =   0.995
                           Ionic strength  =   1.563e-01
                       Mass of water (kg)  =   1.000e+00
                 Total alkalinity (eq/kg)  =   1.625e-02
                       Total CO2 (mol/kg)  =   2.020e-02
                      Temperature (deg C)  =  25.000
                  Electrical balance (eq)  =   1.605e-02
 Percent error, 100*(Cat-|An|)/(Cat+|An|)  =   5.30
                               Iterations  =   5
                                  Total H  = 1.110344e+02
                                  Total O  = 5.556747e+01

----------------------------Distribution of species----------------------------

                                                   Log       Log         Log 
   Species                 Molality    Activity  Molality  Activity     Gamma

   H+                     1.955e-07   1.579e-07    -6.709    -6.802    -0.093
   OH-                    8.676e-08   6.308e-08    -7.062    -7.200    -0.138
   H2O                    5.551e+01   9.949e-01     1.744    -0.002         0
As               9.719e-09
   HAsO4-2                5.974e-09   1.971e-09    -8.224    -8.705    -0.482
   H2AsO4-                3.744e-09   2.838e-09    -8.427    -8.547    -0.120
   AsO4-3                 4.787e-13   3.947e-14   -12.320   -13.404    -1.084
   H3AsO4                 7.511e-14   7.786e-14   -13.124   -13.109     0.016
C(-4)            0.000e+00
   CH4                    0.000e+00   0.000e+00  -142.872  -142.856     0.016
C(4)             2.020e-02
   HCO3-                  1.518e-02   1.156e-02    -1.819    -1.937    -0.118
   CO2                    3.977e-03   4.123e-03    -2.400    -2.385     0.016
   NaHCO3                 7.096e-04   7.356e-04    -3.149    -3.133     0.016
   CaHCO3+                1.869e-04   1.423e-04    -3.728    -3.847    -0.118
   MgHCO3+                1.276e-04   9.666e-05    -3.894    -4.015    -0.120
   CO3-2                  1.021e-05   3.432e-06    -4.991    -5.464    -0.474
   NaCO3-                 9.546e-06   7.234e-06    -5.020    -5.141    -0.120
   CaCO3                  5.368e-06   5.565e-06    -5.270    -5.255     0.016
   MgCO3                  2.259e-06   2.341e-06    -5.646    -5.631     0.016
Ca               3.007e-03
   Ca+2                   2.801e-03   9.652e-04    -2.553    -3.015    -0.463
   CaHCO3+                1.869e-04   1.423e-04    -3.728    -3.847    -0.118
   CaSO4                  1.414e-05   1.466e-05    -4.850    -4.834     0.016
   CaCO3                  5.368e-06   5.565e-06    -5.270    -5.255     0.016
   CaOH+                  1.332e-09   1.009e-09    -8.876    -8.996    -0.120
   CaHSO4+                1.789e-11   1.356e-11   -10.747   -10.868    -0.120
Cl               1.276e-01
   Cl-                    1.276e-01   9.324e-02    -0.894    -1.030    -0.136
H(0)             0.000e+00
   H2                     0.000e+00   0.000e+00   -44.382   -44.367     0.016
Mg               2.105e-03
   Mg+2                   1.963e-03   7.150e-04    -2.707    -3.146    -0.439
   MgHCO3+                1.276e-04   9.666e-05    -3.894    -4.015    -0.120
   MgSO4                  1.231e-05   1.276e-05    -4.910    -4.894     0.016
   MgCO3                  2.259e-06   2.341e-06    -5.646    -5.631     0.016
   MgOH+                  2.158e-08   1.636e-08    -7.666    -7.786    -0.120
Na               1.503e-01
   Na+                    1.495e-01   1.132e-01    -0.825    -0.946    -0.121
   NaHCO3                 7.096e-04   7.356e-04    -3.149    -3.133     0.016
   NaSO4-                 5.698e-05   4.318e-05    -4.244    -4.365    -0.120
   NaCO3-                 9.546e-06   7.234e-06    -5.020    -5.141    -0.120
   NaOH                   4.546e-09   4.712e-09    -8.342    -8.327     0.016
O(0)             4.306e-04
   O2                     2.153e-04   2.232e-04    -3.667    -3.651     0.016
S(-2)            0.000e+00
   HS-                    0.000e+00   0.000e+00  -141.989  -142.128    -0.138
   H2S                    0.000e+00   0.000e+00  -142.003  -141.988     0.016
   S-2                    0.000e+00   0.000e+00  -147.756  -148.244    -0.488
S(6)             3.212e-04
   SO4-2                  2.378e-04   7.611e-05    -3.624    -4.119    -0.495
   NaSO4-                 5.698e-05   4.318e-05    -4.244    -4.365    -0.120
   CaSO4                  1.414e-05   1.466e-05    -4.850    -4.834     0.016
   MgSO4                  1.231e-05   1.276e-05    -4.910    -4.894     0.016
   HSO4-                  1.542e-09   1.168e-09    -8.812    -8.932    -0.120
   CaHSO4+                1.789e-11   1.356e-11   -10.747   -10.868    -0.120

------------------------------Saturation indices-------------------------------

	Phase               SI log IAP  log KT

	Anhydrite        -2.77   -7.13   -4.36  CaSO4
	Aragonite        -0.14   -8.48   -8.34  CaCO3
	Calcite              0   -8.48   -8.48  CaCO3
	CH4(g)         -140.00 -142.86   -2.86  CH4
	CO2(g)           -0.92   -2.38   -1.47  CO2
	Dolomite             0  -17.09  -17.09  CaMg(CO3)2
	Gypsum           -2.56   -7.14   -4.58  CaSO4:2H2O
	H2(g)           -41.22  -44.37   -3.15  H2
	H2O(g)           -1.51       0    1.51  H2O
	H2S(g)         -140.99 -141.99   -1.00  H2S
	Halite           -3.56   -1.98    1.58  NaCl
	O2(g)            -0.69   -3.65   -2.96  O2
	Sulfur         -105.65 -100.77    4.88  S

Time 10000. Cell 81: x=              0	y=          30000	z=              0
Using solution 81.
Using exchange 81
Using surface 81.
Using pure phase assemblage 81.

-------------------------------Phase assemblage--------------------------------

                                                      Moles in assemblage
Phase                  SI log IAP  log KT      Initial       Final       Delta

Calcite                 0   -8.48   -8.48    1.012e-01   1.020e-01   8.114e-04
Dolomite                0  -17.09  -17.09    1.599e+00   1.599e+00  -4.019e-04

------------------------------Surface composition------------------------------

Surf          
	  1.363e-01  Surface charge, eq
Surf          
	  1.400e-01  moles
	                                   Mole                     Log
	Species               Moles    Fraction    Molality    Molality

	SurfOH2+          1.364e-01       0.974   1.364e-01      -0.865
	SurfOH            3.573e-03       0.026   3.573e-03      -2.447
	SurfH2AsO4        3.472e-05           0   3.472e-05      -4.459
	SurfHAsO4-        2.811e-05           0   2.811e-05      -4.551
	SurfO-            2.144e-06           0   2.144e-06      -5.669
	SurfOHAsO4-3      6.842e-07           0   6.842e-07      -6.165

-----------------------------Exchange composition------------------------------

X                5.000e-01 mol

	                               Equiv-    Equivalent      Log 
	Species             Moles      alents      Fraction     Gamma

	NaX               4.492e-01   4.492e-01   8.983e-01     0.220
	CaX2              2.076e-02   4.152e-02   8.303e-02     0.139
	MgX2              4.654e-03   9.308e-03   1.862e-02     0.458

-----------------------------Solution composition------------------------------

	Elements           Molality       Moles

	As                1.130e-08   1.130e-08
	C                 4.166e-03   4.166e-03
	Ca                4.409e-01   4.409e-01
	Cl                6.356e+00   6.356e+00
	Mg                1.566e-01   1.566e-01
	Na                5.174e+00   5.174e+00
	S                 4.532e-03   4.532e-03

----------------------------Description of solution----------------------------

                                       pH  =   5.708      Charge balance
                                       pe  =  14.958      Adjusted to redox equilibrium
                        Activity of water  =   0.794
                           Ionic strength  =   6.952e+00
                       Mass of water (kg)  =   1.000e+00
                 Total alkalinity (eq/kg)  =   3.907e-03
                       Total CO2 (mol/kg)  =   4.166e-03
                      Temperature (deg C)  =  25.000
                  Electrical balance (eq)  =   8.893e-05
 Percent error, 100*(Cat-|An|)/(Cat+|An|)  =      0
                               Iterations  =   4
                                  Total H  = 1.110164e+02
                                  Total O  = 5.553670e+01

----------------------------Distribution of species----------------------------

                                                   Log       Log         Log 
   Species                 Molality    Activity  Molality  Activity     Gamma

[...]
   CO3-2                  1.963e-05   8.709e-06    -4.707    -5.060    -0.353
   NaCO3-                 1.090e-05   8.811e-06    -4.963    -5.055    -0.092
   CaCO3                  5.485e-06   5.565e-06    -5.261    -5.255     0.006
   MgCO3                  2.308e-06   2.341e-06    -5.637    -5.631     0.006
Ca               9.618e-04
   Ca+2                   8.533e-04   3.804e-04    -3.069    -3.420    -0.351
   CaHCO3+                9.617e-05   7.848e-05    -4.017    -4.105    -0.088
   CaSO4                  6.873e-06   6.973e-06    -5.163    -5.157     0.006
   CaCO3                  5.485e-06   5.565e-06    -5.261    -5.255     0.006
   CaOH+                  8.947e-10   7.233e-10    -9.048    -9.141    -0.092
   CaHSO4+                4.400e-12   3.558e-12   -11.356   -11.449    -0.092
Cl               3.125e-02
   Cl-                    3.125e-02   2.494e-02    -1.505    -1.603    -0.098
H(0)             0.000e+00
   H2                     0.000e+00   0.000e+00   -44.369   -44.363     0.006
Mg               6.885e-04
   Mg+2                   6.143e-04   2.818e-04    -3.212    -3.550    -0.338
   MgHCO3+                6.595e-05   5.332e-05    -4.181    -4.273    -0.092
   MgSO4                  5.982e-06   6.069e-06    -5.223    -5.217     0.006
   MgCO3                  2.308e-06   2.341e-06    -5.637    -5.631     0.006
   MgOH+                  1.450e-08   1.172e-08    -7.839    -7.931    -0.092
Na               6.756e-02
   Na+                    6.703e-02   5.434e-02    -1.174    -1.265    -0.091
   NaHCO3                 4.871e-04   4.941e-04    -3.312    -3.306     0.006
   NaSO4-                 3.095e-05   2.502e-05    -4.509    -4.602    -0.092
   NaCO3-                 1.090e-05   8.811e-06    -4.963    -5.055    -0.092
   NaOH                   4.055e-09   4.114e-09    -8.392    -8.386     0.006
O(0)             4.358e-04
   O2                     2.179e-04   2.211e-04    -3.662    -3.655     0.006
S(-2)            0.000e+00
   HS-                    0.000e+00   0.000e+00  -142.197  -142.296    -0.099
   H2S                    0.000e+00   0.000e+00  -142.420  -142.414     0.006
   S-2                    0.000e+00   0.000e+00  -147.793  -148.154    -0.361
S(6)             2.561e-04
   SO4-2                  2.123e-04   9.188e-05    -3.673    -4.037    -0.364
   NaSO4-                 3.095e-05   2.502e-05    -4.509    -4.602    -0.092
   CaSO4                  6.873e-06   6.973e-06    -5.163    -5.157     0.006
   MgSO4                  5.982e-06   6.069e-06    -5.223    -5.217     0.006
   HSO4-                  9.622e-10   7.779e-10    -9.017    -9.109    -0.092
   CaHSO4+                4.400e-12   3.558e-12   -11.356   -11.449    -0.092

------------------------------Saturation indices-------------------------------

	Phase               SI log IAP  log KT

	Anhydrite        -3.10   -7.46   -4.36  CaSO4
	Aragonite        -0.14   -8.48   -8.34  CaCO3
	Calcite              0   -8.48   -8.48  CaCO3
	CH4(g)         -140.10 -142.96   -2.86  CH4
	CO2(g)           -1.03   -2.50   -1.47  CO2
	Dolomite             0  -17.09  -17.09  CaMg(CO3)2
	Gypsum           -2.88   -7.46   -4.58  CaSO4:2H2O
	H2(g)           -41.21  -44.36   -3.15  H2
	H2O(g)           -1.51       0    1.51  H2O
	H2S(g)         -141.42 -142.41   -1.00  H2S
	Halite           -4.45   -2.87    1.58  NaCl
	O2(g)            -0.70   -3.66   -2.96  O2
	Sulfur         -106.08 -101.20    4.88  S

Time 10000. Cell 637: x=          72000	y=          18000	z=            400
Cell is dry.
Time 10000. Cell 640: x=          90000	y=          18000	z=            400
Cell is dry.
Time 10000. Cell 657: x=              0	y=          30000	z=            400
Cell is dry.
Time 10000. Cell 660: x=          18000	y=          30000	z=            400
Cell is dry.
Time 10000. Cell 663: x=          36000	y=          30000	z=            400
Using solution 663.
Using exchange 663
Using surface 663.
Using pure phase assemblage 663.

-------------------------------Phase assemblage--------------------------------

                                                      Moles in assemblage
Phase                  SI log IAP  log KT      Initial       Final       Delta

Calcite                 0   -8.48   -8.48    1.393e-01   1.361e-01  -3.233e-03
Dolomite                0  -17.09  -17.09    1.571e+00   1.567e+00  -3.372e-03

------------------------------Surface composition------------------------------

Surf          
	  9.841e-02  Surface charge, eq
Surf          
	  1.400e-01  moles
	                                   Mole                     Log
	Species               Moles    Fraction    Molality    Molality

	SurfOH2+          9.896e-02       0.707   9.896e-02      -1.005
	SurfOH            4.059e-02       0.290   4.059e-02      -1.392
	SurfO-            3.814e-04       0.003   3.814e-04      -3.419
	SurfOHAsO4-3      5.545e-05           0   5.544e-05      -4.256
	SurfHAsO4-        7.405e-06           0   7.405e-06      -5.131
	SurfH2AsO4        5.842e-07           0   5.842e-07      -6.233

-----------------------------Exchange composition------------------------------

X                5.000e-01 mol

	                               Equiv-    Equivalent      Log 
	Species             Moles      alents      Fraction     Gamma

	NaX               2.792e-01   2.792e-01   5.584e-01    -0.109
	CaX2              7.625e-02   1.525e-01   3.050e-01    -0.418
	MgX2              3.414e-02   6.828e-02   1.366e-01    -0.400

-----------------------------Solution composition------------------------------

	Elements           Molality       Moles

	As                5.991e-09   5.991e-09
	C                 2.089e-02   2.089e-02
	Ca                1.953e-03   1.954e-03
	Cl                8.065e-02   8.065e-02
	Mg                1.383e-03   1.383e-03
	Na                1.082e-01   1.082e-01
	S                 2.895e-04   2.895e-04

----------------------------Description of solution----------------------------

                                       pH  =   6.903      Charge balance
                                       pe  =  13.704      Adjusted to redox equilibrium
                        Activity of water  =   0.996
                           Ionic strength  =   1.091e-01
                       Mass of water (kg)  =   1.000e+00
                 Total alkalinity (eq/kg)  =   1.737e-02
                       Total CO2 (mol/kg)  =   2.089e-02
                      Temperature (deg C)  =  25.000
                  Electrical balance (eq)  =   1.628e-02
 Percent error, 100*(Cat-|An|)/(Cat+|An|)  =   7.69
                               Iterations  =   5
                                  Total H  = 1.110347e+02
                                  Total O  = 5.556940e+01

----------------------------Distribution of species----------------------------

                                                   Log       Log         Log 
   Species                 Molality    Activity  Molality  Activity     Gamma

   H+                     1.521e-07   1.250e-07    -6.818    -6.903    -0.085
   OH-                    1.056e-07   7.977e-08    -6.976    -7.098    -0.122
   H2O                    5.551e+01   9.964e-01     1.744    -0.002         0
As               5.991e-09
   HAsO4-2                3.905e-09   1.421e-09    -8.408    -8.848    -0.439
   H2AsO4-                2.086e-09   1.620e-09    -8.681    -8.790    -0.110
   AsO4-3                 3.495e-13   3.593e-14   -12.457   -13.445    -0.988
   H3AsO4                 3.433e-14   3.520e-14   -13.464   -13.453     0.011
C(-4)            0.000e+00
   CH4                    0.000e+00   0.000e+00  -142.916  -142.905     0.011
C(4)             2.089e-02
   HCO3-                  1.647e-02   1.290e-02    -1.783    -1.889    -0.106
   CO2                    3.551e-03   3.641e-03    -2.450    -2.439     0.011
   NaHCO3                 5.920e-04   6.070e-04    -3.228    -3.217     0.011
   CaHCO3+                1.439e-04   1.127e-04    -3.842    -3.948    -0.106
   MgHCO3+                9.857e-05   7.655e-05    -4.006    -4.116    -0.110
   CO3-2                  1.286e-05   4.840e-06    -4.891    -5.315    -0.424
   NaCO3-                 9.707e-06   7.539e-06    -5.013    -5.123    -0.110
   CaCO3                  5.427e-06   5.565e-06    -5.265    -5.255     0.011
   MgCO3                  2.283e-06   2.341e-06    -5.641    -5.631     0.011
Ca               1.953e-03
   Ca+2                   1.793e-03   6.844e-04    -2.746    -3.165    -0.418
   CaHCO3+                1.439e-04   1.127e-04    -3.842    -3.948    -0.106
   CaSO4                  1.087e-05   1.114e-05    -4.964    -4.953     0.011
   CaCO3                  5.427e-06   5.565e-06    -5.265    -5.255     0.011
   CaOH+                  1.165e-09   9.052e-10    -8.933    -9.043    -0.110
   CaHSO4+                1.051e-11   8.163e-12   -10.978   -11.088    -0.110
Cl               8.065e-02
   Cl-                    8.065e-02   6.113e-02    -1.093    -1.214    -0.120
H(0)             0.000e+00
   H2                     0.000e+00   0.000e+00   -44.376   -44.365     0.011
Mg               1.383e-03
   Mg+2                   1.273e-03   5.070e-04    -2.895    -3.295    -0.400
   MgHCO3+                9.857e-05   7.655e-05    -4.006    -4.116    -0.110
   MgSO4                  9.458e-06   9.699e-06    -5.024    -5.013     0.011
   MgCO3                  2.283e-06   2.341e-06    -5.641    -5.631     0.011
   MgOH+                  1.889e-08   1.467e-08    -7.724    -7.834    -0.110
Na               1.082e-01
   Na+                    1.076e-01   8.365e-02    -0.968    -1.078    -0.109
   NaHCO3                 5.920e-04   6.070e-04    -3.228    -3.217     0.011
   NaSO4-                 4.405e-05   3.421e-05    -4.356    -4.466    -0.110
   NaCO3-                 9.707e-06   7.539e-06    -5.013    -5.123    -0.110
   NaOH                   4.295e-09   4.404e-09    -8.367    -8.356     0.011
O(0)             4.331e-04
   O2                     2.166e-04   2.221e-04    -3.664    -3.653     0.011
S(-2)            0.000e+00
   HS-                    0.000e+00   0.000e+00  -142.072  -142.194    -0.122
   H2S                    0.000e+00   0.000e+00  -142.166  -142.156     0.011
   S-2                    0.000e+00   0.000e+00  -147.773  -148.209    -0.436
S(6)             2.895e-04
   SO4-2                  2.251e-04   8.160e-05    -3.648    -4.088    -0.441
   NaSO4-                 4.405e-05   3.421e-05    -4.356    -4.466    -0.110
   CaSO4                  1.087e-05   1.114e-05    -4.964    -4.953     0.011
   MgSO4                  9.458e-06   9.699e-06    -5.024    -5.013     0.011
   HSO4-                  1.277e-09   9.920e-10    -8.894    -9.003    -0.110
   CaHSO4+                1.051e-11   8.163e-12   -10.978   -11.088    -0.110

------------------------------Saturation indices-------------------------------

	Phase               SI log IAP  log KT

	Anhydrite        -2.89   -7.25   -4.36  CaSO4
	Aragonite        -0.14   -8.48   -8.34  CaCO3
	Calcite              0   -8.48   -8.48  CaCO3
	CH4(g)         -140.04 -142.90   -2.86  CH4
	CO2(g)           -0.97   -2.44   -1.47  CO2
	Dolomite             0  -17.09  -17.09  CaMg(CO3)2
	Gypsum           -2.68   -7.26   -4.58  CaSO4:2H2O
	H2(g)           -41.21  -44.36   -3.15  H2
	H2O(g)           -1.51       0    1.51  H2O
	H2S(g)         -141.16 -142.16   -1.00  H2S
	Halite           -3.87   -2.29    1.58  NaCl
	O2(g)            -0.69   -3.65   -2.96  O2
	Sulfur         -105.82 -100.94    4.88  S

Time 10000. Cell 666: x=          54000	y=          30000	z=            400
Using solution 666.
Using exchange 666
Using surface 666.
Using pure phase assemblage 666.

-------------------------------Phase assemblage--------------------------------

                                                      Moles in assemblage
Phase                  SI log IAP  log KT      Initial       Final       Delta

Calcite                 0   -8.48   -8.48    1.314e-01   1.273e-01  -4.060e-03
Dolomite                0  -17.09  -17.09    1.571e+00   1.567e+00  -3.878e-03

------------------------------Surface composition------------------------------

Surf          
	  8.855e-02  Surface charge, eq
Surf          
	  1.400e-01  moles
	                                   Mole                     Log
	Species               Moles    Fraction    Molality    Molality

	SurfOH2+          8.937e-02       0.638   8.936e-02      -1.049
	SurfOH            4.993e-02       0.357   4.993e-02      -1.302
	SurfO-            6.391e-04       0.005   6.391e-04      -3.194
	SurfOHAsO4-3      5.896e-05           0   5.896e-05      -4.229
	SurfHAsO4-        4.238e-06           0   4.237e-06      -5.373
	SurfH2AsO4        2.454e-07           0   2.454e-07      -6.610

-----------------------------Exchange composition------------------------------

X                5.000e-01 mol

	                               Equiv-    Equivalent      Log 
	Species             Moles      alents      Fraction     Gamma

	NaX               2.645e-01   2.645e-01   5.290e-01    -0.094
	CaX2              8.102e-02   1.620e-01   3.241e-01    -0.361
	MgX2              3.673e-02   7.346e-02   1.469e-01    -0.347

-----------------------------Solution composition------------------------------

	Elements           Molality       Moles

	As                3.099e-09   3.099e-09
	C                 2.332e-02   2.332e-02
	Ca                1.059e-03   1.059e-03
	Cl                3.692e-02   3.692e-02
	Mg                7.574e-04   7.574e-04
	Na                7.229e-02   7.229e-02
	S                 2.599e-04   2.599e-04

----------------------------Description of solution----------------------------

                                       pH  =   7.037      Charge balance
                                       pe  =  13.569      Adjusted to redox equilibrium
                        Activity of water  =   0.998
                           Ionic strength  =   6.785e-02
                       Mass of water (kg)  =   1.000e+00
                 Total alkalinity (eq/kg)  =   2.015e-02
                       Total CO2 (mol/kg)  =   2.332e-02
                      Temperature (deg C)  =  25.000
                  Electrical balance (eq)  =   1.833e-02
 Percent error, 100*(Cat-|An|)/(Cat+|An|)  =  13.89
                               Iterations  =   6
                                  Total H  = 1.110368e+02
                                  Total O  = 5.557657e+01

----------------------------Distribution of species----------------------------

                                                   Log       Log         Log 
   Species                 Molality    Activity  Molality  Activity     Gamma

   OH-                    1.377e-07   1.088e-07    -6.861    -6.963    -0.102
   H+                     1.091e-07   9.179e-08    -6.962    -7.037    -0.075
   H2O                    5.551e+01   9.977e-01     1.744    -0.001         0
As               3.099e-09
   HAsO4-2                2.160e-09   9.015e-10    -8.666    -9.045    -0.380
   H2AsO4-                9.389e-10   7.547e-10    -9.027    -9.122    -0.095
   AsO4-3                 2.219e-13   3.106e-14   -12.654   -13.508    -0.854
   H3AsO4                 1.185e-14   1.204e-14   -13.926   -13.919     0.007
C(-4)            0.000e+00
   CH4                    0.000e+00   0.000e+00  -142.955  -142.948     0.007
C(4)             2.332e-02
   HCO3-                  1.940e-02   1.574e-02    -1.712    -1.803    -0.091
   CO2                    3.206e-03   3.256e-03    -2.494    -2.487     0.007
   NaHCO3                 5.039e-04   5.118e-04    -3.298    -3.291     0.007
   CaHCO3+                1.019e-04   8.272e-05    -3.992    -4.082    -0.091
   MgHCO3+                6.992e-05   5.619e-05    -4.155    -4.250    -0.095
   CO3-2                  1.855e-05   8.043e-06    -4.732    -5.095    -0.363
   NaCO3-                 1.077e-05   8.659e-06    -4.968    -5.063    -0.095
   CaCO3                  5.479e-06   5.565e-06    -5.261    -5.255     0.007
   MgCO3                  2.305e-06   2.341e-06    -5.637    -5.631     0.007
Ca               1.059e-03
   Ca+2                   9.446e-04   4.118e-04    -3.025    -3.385    -0.361
   CaHCO3+                1.019e-04   8.272e-05    -3.992    -4.082    -0.091
   CaSO4                  7.301e-06   7.416e-06    -5.137    -5.130     0.007
   CaCO3                  5.479e-06   5.565e-06    -5.261    -5.255     0.007
   CaOH+                  9.243e-10   7.429e-10    -9.034    -9.129    -0.095
   CaHSO4+                4.962e-12   3.988e-12   -11.304   -11.399    -0.095
Cl               3.692e-02
   Cl-                    3.692e-02   2.926e-02    -1.433    -1.534    -0.101
H(0)             0.000e+00
   H2                     0.000e+00   0.000e+00   -44.370   -44.363     0.007
Mg               7.574e-04
   Mg+2                   6.788e-04   3.051e-04    -3.168    -3.516    -0.347
   MgHCO3+                6.992e-05   5.619e-05    -4.155    -4.250    -0.095
   MgSO4                  6.354e-06   6.454e-06    -5.197    -5.190     0.007
   MgCO3                  2.305e-06   2.341e-06    -5.637    -5.631     0.007
   MgOH+                  1.498e-08   1.204e-08    -7.825    -7.919    -0.095
Na               7.229e-02
   Na+                    7.174e-02   5.781e-02    -1.144    -1.238    -0.094
   NaHCO3                 5.039e-04   5.118e-04    -3.298    -3.291     0.007
   NaSO4-                 3.253e-05   2.615e-05    -4.488    -4.583    -0.095
   NaCO3-                 1.077e-05   8.659e-06    -4.968    -5.063    -0.095
   NaOH                   4.087e-09   4.152e-09    -8.389    -8.382     0.007
O(0)             4.355e-04
   O2                     2.177e-04   2.212e-04    -3.662    -3.655     0.007
S(-2)            0.000e+00
   HS-                    0.000e+00   0.000e+00  -142.179  -142.281    -0.102
   H2S                    0.000e+00   0.000e+00  -142.384  -142.377     0.007
   S-2                    0.000e+00   0.000e+00  -147.790  -148.162    -0.372
S(6)             2.599e-04
   SO4-2                  2.137e-04   9.025e-05    -3.670    -4.045    -0.374
   NaSO4-                 3.253e-05   2.615e-05    -4.488    -4.583    -0.095
   CaSO4                  7.301e-06   7.416e-06    -5.137    -5.130     0.007
   MgSO4                  6.354e-06   6.454e-06    -5.197    -5.190     0.007
   HSO4-                  1.002e-09   8.054e-10    -8.999    -9.094    -0.095
   CaHSO4+                4.962e-12   3.988e-12   -11.304   -11.399    -0.095

------------------------------Saturation indices-------------------------------

	Phase               SI log IAP  log KT

	Anhydrite        -3.07   -7.43   -4.36  CaSO4
	Aragonite        -0.14   -8.48   -8.34  CaCO3
	Calcite              0   -8.48   -8.48  CaCO3
	CH4(g)         -140.09 -142.95   -2.86  CH4
	CO2(g)           -1.02   -2.49   -1.47  CO2
	Dolomite             0  -17.09  -17.09  CaMg(CO3)2
	Gypsum           -2.85   -7.43   -4.58  CaSO4:2H2O
	H2(g)           -41.21  -44.36   -3.15  H2
	H2O(g)           -1.51       0    1.51  H2O
	H2S(g)         -141.38 -142.38   -1.00  H2S
	Halite           -4.35   -2.77    1.58  NaCl
	O2(g)            -0.70   -3.66   -2.96  O2
	Sulfur         -106.05 -101.16    4.88  S

Time 10000. Cell 669: x=          72000	y=          30000	z=            400
Cell is dry.
Time 10000. Cell 672: x=          90000	y=          30000	z=            400
Cell is dry.
Time 10000. Cell 705: x=              0	y=          48000	z=            400
Cell is dry.
Time 10000. Cell 708: x=          18000	y=          48000	z=            400
Cell is dry.
Time 10000. Cell 711: x=          36000	y=          48000	z=            400
Cell is dry.
Time 10000. Cell 714: x=          54000	y=          48000	z=            400
Cell is dry.
Time 10000. Cell 717: x=          72000	y=          48000	z=            400
Cell is dry.
Time 10000. Cell 720: x=          90000	y=          48000	z=            400
Cell is dry.
