Output file:    mass_balance.chem.txt
Chemistry file: mass_balance.chem.dat
Database file:  phast.dat

------------------
Reading data base.
------------------

	SOLUTION_MASTER_SPECIES
	SOLUTION_SPECIES
	PHASES
	EXCHANGE_MASTER_SPECIES
	EXCHANGE_SPECIES
	SURFACE_MASTER_SPECIES
	SURFACE_SPECIES
	RATES
	END
------------------------------------
Reading input data for simulation 1.
------------------------------------

	TITLE PHREEQC example 11.--Transport and ion exchange
	SOLUTION 0 CaCl2
	        units   mmol/kgw
	        pH      7.0     charge
	        pe      12.5   O2(g)  -0.68
	        temp    25.0
	        Ca      0.6
	        Cl      1.2
	SOLUTION 1  Initial solution for column
	        units   mmol/kgw
	        pH      7.0     charge
	        pe      12.5   O2(g)  -0.68
	        temp    25.0
	        Na      1.0
	        K       0.2
	        N(5)    1.2
	END
-----
TITLE
-----

 PHREEQC example 11.--Transport and ion exchange

-------------------------------------------
Beginning of initial solution calculations.
-------------------------------------------

Initial solution 0 CaCl2

-----------------------------Solution composition------------------------------

	Elements           Molality       Moles

	Ca                6.000e-04   6.000e-04
	Cl                1.200e-03   1.200e-03

----------------------------Description of solution----------------------------

                                       pH  =   6.997      Charge balance
                                       pe  =  13.613      Equilibrium with O2(g)
                        Activity of water  =   1.000
                           Ionic strength  =   1.800e-03
                       Mass of water (kg)  =   1.000e+00
                 Total alkalinity (eq/kg)  =  -6.023e-20
                    Total carbon (mol/kg)  =   0 
                       Total CO2 (mol/kg)  =   0 
                      Temperature (deg C)  =  25.000
                  Electrical balance (eq)  =   4.002e-18
 Percent error, 100*(Cat-|An|)/(Cat+|An|)  =      0
                               Iterations  =   4
                                  Total H  = 1.110124e+02
                                  Total O  = 5.550667e+01

----------------------------Distribution of species----------------------------

                                                   Log       Log         Log 
   Species                 Molality    Activity  Molality  Activity     Gamma

   H+                     1.052e-07   1.006e-07    -6.978    -6.997    -0.019
   OH-                    1.043e-07   9.948e-08    -6.982    -7.002    -0.021
   H2O                    5.551e+01   1.000e+00     1.744         0        0
Ca               6.000e-04
   Ca+2                   6.000e-04   4.985e-04    -3.222    -3.302    -0.081
   CaOH+                  8.617e-10   8.221e-10    -9.065    -9.085    -0.020
Cl               1.200e-03
   Cl-                    1.200e-03   1.144e-03    -2.921    -2.941    -0.021
H(0)             0 
   H2                     0  0  -44.370   -44.370         0
O(0)             4.580e-04
   O2                     2.290e-04   2.291e-04    -3.640    -3.640         0

------------------------------Saturation indices-------------------------------

	Phase               SI log IAP  log KT

	H2(g)           -41.22  -44.37   -3.15  H2
	H2O(g)           -1.51       0   1.51  H2O
	O2(g)            -0.68   -3.64   -2.96  O2

Initial solution 1.	Initial solution for column

-----------------------------Solution composition------------------------------

	Elements           Molality       Moles

	K                 2.000e-04   2.000e-04
	N(5)              1.200e-03   1.200e-03
	Na                1.000e-03   1.000e-03

----------------------------Description of solution----------------------------

                                       pH  =   6.999      Charge balance
                                       pe  =  13.611      Equilibrium with O2(g)
                        Activity of water  =   1.000
                           Ionic strength  =   1.200e-03
                       Mass of water (kg)  =   1.000e+00
                 Total alkalinity (eq/kg)  =  -7.428e-19
                    Total carbon (mol/kg)  =   0 
                       Total CO2 (mol/kg)  =   0 
                      Temperature (deg C)  =  25.000
                  Electrical balance (eq)  =  -8.481e-17
 Percent error, 100*(Cat-|An|)/(Cat+|An|)  =      0
                               Iterations  =   3
                                  Total H  = 1.110124e+02
                                  Total O  = 5.551027e+01

----------------------------Distribution of species----------------------------

                                                   Log       Log         Log 
   Species                 Molality    Activity  Molality  Activity     Gamma

   H+                     1.040e-07   1.002e-07    -6.983    -6.999    -0.016
   OH-                    1.039e-07   9.991e-08    -6.983    -7.000    -0.017
   H2O                    5.551e+01   1.000e+00     1.744         0        0
H(0)             0 
   H2                     0  0  -44.370   -44.370         0
K                2.000e-04
   K+                     2.000e-04   1.923e-04    -3.699    -3.716    -0.017
   KOH                    6.654e-12   6.656e-12   -11.177   -11.177         0
N(5)             1.200e-03
   NO3-                   1.200e-03   1.154e-03    -2.921    -2.938    -0.017
Na               1.000e-03
   Na+                    1.000e-03   9.621e-04    -3.000    -3.017    -0.017
   NaOH                   6.342e-11   6.344e-11   -10.198   -10.198         0
O(0)             4.580e-04
   O2                     2.290e-04   2.291e-04    -3.640    -3.640         0

------------------------------Saturation indices-------------------------------

	Phase               SI log IAP  log KT

	H2(g)           -41.22  -44.37   -3.15  H2
	H2O(g)           -1.51       0   1.51  H2O
	O2(g)            -0.68   -3.64   -2.96  O2

------------------
End of simulation.
------------------

------------------------------------
Reading input data for simulation 2.
------------------------------------

	EXCHANGE 1
	        equilibrate 1
	        X       0.0011
	END
-------------------------------------------------------
Beginning of initial exchange-composition calculations.
-------------------------------------------------------

Exchange 1.	

X                1.100e-03 mol

	                               Equiv-    Equivalent      Log 
	Species             Moles      alents      Fraction     Gamma

	KX                5.507e-04   5.507e-04   5.006e-01    -0.017
	NaX               5.493e-04   5.493e-04   4.994e-01    -0.017

------------------
End of simulation.
------------------

------------------------------------
Reading input data for simulation 3.
------------------------------------

	PHASES
	LiBr
		LiBr:H2O = Li+ + Br- + H2O
		log_k  1
	END
------------------
End of simulation.
------------------

------------------------------------
Reading input data for simulation 4.
------------------------------------

	RATES
	Add_Br
	start
	10 k = 20  #moles/day
	20 moles = k * time/3600/24
	30 save moles
	end
	KINETICS 1
	Add_Br
		formula  LiBr
		m0 1000
	END
------------------
End of simulation.
------------------

------------------------------------
Reading input data for simulation 5.
------------------------------------

	SELECTED_OUTPUT
	        file mass_balance.sel
	        reset false
	END
------------------
End of simulation.
------------------

------------------------------------
Reading input data for simulation 6.
------------------------------------

	USER_PUNCH
	heading Pore_volume Na Cl K Ca SolidCa,cell FluidCa,cell exchCa totCa PV kg_water
	10 PUNCH TOTAL_TIME/86400*3
	20 PUNCH TOT("Na") * 1000
	30 PUNCH TOT("Cl") * 1000
	40 PUNCH TOT("K") * 1000
	50 PUNCH TOT("Ca") * 1000
	60 PUNCH MOL("CaX2")*TOT("water") * porevolume * 40.08 * 1e-3
	70 PUNCH TOT("Ca")*TOT("water") * porevolume * 40.08 * 1e-3
	80 PUNCH MOL("CaX2")*TOT("water"), TOT("Ca")*TOT("water"), porevolume, TOT("water")
	END
------------------
End of simulation.
------------------

------------------------------------
Reading input data for simulation 7.
------------------------------------

List of Components:
	1	H
	2	O
	3	Br
	4	Ca
	5	Cl
	6	K
	7	Li
	8	N
	9	Na
	10	Charge
List of master species:
	1	Br
	2	Ca
	3	Cl
	4	K
	5	Li
	6	N(-3)
	7	N(0)
	8	N(3)
	9	N(5)
	10	Na
Time 0.5. Cell 1: x=              0	y=              0	z=              0
Using solution 1.
Using exchange 1

-----------------------------Exchange composition------------------------------

X                1.100e-03 mol

	                               Equiv-    Equivalent      Log 
	Species             Moles      alents      Fraction     Gamma

	CaX2              5.500e-04   1.100e-03   1.000e+00    -0.081
	KX                5.214e-10   5.214e-10   4.740e-07    -0.021
	NaX               5.309e-11   5.309e-11   4.826e-08    -0.020
	NH4X              1.155e-70   1.155e-70   1.050e-67    -0.021

-----------------------------Solution composition------------------------------

	Elements           Molality       Moles

	Ca                6.000e-04   6.000e-04
	Cl                1.200e-03   1.200e-03
	K                 5.819e-09   5.819e-09
	N                 1.018e-09   1.018e-09
	Na                2.970e-09   2.970e-09

----------------------------Description of solution----------------------------

                                       pH  =   6.997      Charge balance
                                       pe  =  13.613      Adjusted to redox equilibrium
                        Activity of water  =   1.000
                           Ionic strength  =   1.800e-03
                       Mass of water (kg)  =   1.000e+00
                 Total alkalinity (eq/kg)  =  -3.730e-19
                    Total carbon (mol/kg)  =   0 
                       Total CO2 (mol/kg)  =   0 
                      Temperature (deg C)  =  25.000
                  Electrical balance (eq)  =   1.015e-14
 Percent error, 100*(Cat-|An|)/(Cat+|An|)  =      0
                               Iterations  =   2
                                  Total H  = 1.110124e+02
                                  Total O  = 5.550667e+01

----------------------------Distribution of species----------------------------

                                                   Log       Log         Log 
   Species                 Molality    Activity  Molality  Activity     Gamma

   H+                     1.052e-07   1.006e-07    -6.978    -6.997    -0.019
   OH-                    1.043e-07   9.948e-08    -6.982    -7.002    -0.021
   H2O                    5.551e+01   1.000e+00     1.744         0        0
Ca               6.000e-04
   Ca+2                   6.000e-04   4.985e-04    -3.222    -3.302    -0.081
   CaOH+                  8.617e-10   8.221e-10    -9.065    -9.085    -0.020
Cl               1.200e-03
   Cl-                    1.200e-03   1.144e-03    -2.921    -2.941    -0.021
H(0)             0 
   H2                     0  0  -44.370   -44.370         0
K                5.819e-09
   K+                     5.819e-09   5.550e-09    -8.235    -8.256    -0.021
   KOH                    1.911e-16   1.912e-16   -15.719   -15.718         0
N(-3)            0 
   NH4+                   0  0  -68.790   -68.811    -0.021
   NH3                    0  0  -71.058   -71.058         0
N(0)             1.820e-31
   N2                     9.099e-32   9.103e-32   -31.041   -31.041         0
N(3)             2.278e-22
   NO2-                   2.278e-22   2.172e-22   -21.642   -21.663    -0.021
N(5)             1.018e-09
   NO3-                   1.018e-09   9.702e-10    -8.992    -9.013    -0.021
Na               2.970e-09
   Na+                    2.970e-09   2.834e-09    -8.527    -8.548    -0.020
   NaOH                   1.860e-16   1.861e-16   -15.731   -15.730         0
O(0)             4.580e-04
   O2                     2.290e-04   2.291e-04    -3.640    -3.640         0

------------------------------Saturation indices-------------------------------

	Phase               SI log IAP  log KT

	H2(g)           -41.22  -44.37   -3.15  H2
	H2O(g)           -1.51       0   1.51  H2O
	Halite          -13.07  -11.49    1.58  NaCl
	N2(g)           -27.78  -31.04   -3.26  N2
	NH3(g)          -72.83  -71.06    1.77  NH3
	O2(g)            -0.68   -3.64   -2.96  O2

Time 0.5. Cell 2: x=              1	y=              0	z=              0
Using solution 2.
Using exchange 2

-----------------------------Exchange composition------------------------------

X                1.100e-03 mol

	                               Equiv-    Equivalent      Log 
	Species             Moles      alents      Fraction     Gamma

	CaX2              5.500e-04   1.100e-03   1.000e+00    -0.081
	KX                5.214e-10   5.214e-10   4.740e-07    -0.021
	NaX               5.309e-11   5.309e-11   4.826e-08    -0.020
	NH4X              1.155e-70   1.155e-70   1.050e-67    -0.021

-----------------------------Solution composition------------------------------

	Elements           Molality       Moles

	Ca                6.000e-04   6.000e-04
	Cl                1.200e-03   1.200e-03
	K                 5.819e-09   5.819e-09
	N                 1.018e-09   1.018e-09
	Na                2.970e-09   2.970e-09

----------------------------Description of solution----------------------------

                                       pH  =   6.997      Charge balance
                                       pe  =  13.613      Adjusted to redox equilibrium
                        Activity of water  =   1.000
                           Ionic strength  =   1.800e-03
                       Mass of water (kg)  =   1.000e+00
                 Total alkalinity (eq/kg)  =  -5.519e-19
                    Total carbon (mol/kg)  =   0 
                       Total CO2 (mol/kg)  =   0 
                      Temperature (deg C)  =  25.000
                  Electrical balance (eq)  =   1.015e-14
 Percent error, 100*(Cat-|An|)/(Cat+|An|)  =      0
                               Iterations  =   2
                                  Total H  = 1.110124e+02
                                  Total O  = 5.550667e+01

----------------------------Distribution of species----------------------------

                                                   Log       Log         Log 
   Species                 Molality    Activity  Molality  Activity     Gamma

   H+                     1.052e-07   1.006e-07    -6.978    -6.997    -0.019
   OH-                    1.043e-07   9.948e-08    -6.982    -7.002    -0.021
   H2O                    5.551e+01   1.000e+00     1.744         0        0
Ca               6.000e-04
   Ca+2                   6.000e-04   4.985e-04    -3.222    -3.302    -0.081
   CaOH+                  8.617e-10   8.221e-10    -9.065    -9.085    -0.020
Cl               1.200e-03
   Cl-                    1.200e-03   1.144e-03    -2.921    -2.941    -0.021
H(0)             0 
   H2                     0  0  -44.370   -44.370         0
K                5.819e-09
   K+                     5.819e-09   5.550e-09    -8.235    -8.256    -0.021
   KOH                    1.911e-16   1.912e-16   -15.719   -15.718         0
N(-3)            0 
   NH4+                   0  0  -68.790   -68.811    -0.021
   NH3                    0  0  -71.058   -71.058         0
N(0)             1.820e-31
   N2                     9.099e-32   9.103e-32   -31.041   -31.041         0
N(3)             2.278e-22
   NO2-                   2.278e-22   2.172e-22   -21.642   -21.663    -0.021
N(5)             1.018e-09
   NO3-                   1.018e-09   9.702e-10    -8.992    -9.013    -0.021
Na               2.970e-09
   Na+                    2.970e-09   2.834e-09    -8.527    -8.548    -0.020
   NaOH                   1.860e-16   1.861e-16   -15.731   -15.730         0
O(0)             4.580e-04
   O2                     2.290e-04   2.291e-04    -3.640    -3.640         0

------------------------------Saturation indices-------------------------------

	Phase               SI log IAP  log KT

	H2(g)           -41.22  -44.37   -3.15  H2
	H2O(g)           -1.51       0   1.51  H2O
	Halite          -13.07  -11.49    1.58  NaCl
	N2(g)           -27.78  -31.04   -3.26  N2
	NH3(g)          -72.83  -71.06    1.77  NH3
	O2(g)            -0.68   -3.64   -2.96  O2

Time 0.5. Cell 3: x=              0	y=              1	z=              0
Using solution 3.
Using exchange 3

-----------------------------Exchange composition------------------------------

X                1.100e-03 mol

	                               Equiv-    Equivalent      Log 
	Species             Moles      alents      Fraction     Gamma

	CaX2              5.500e-04   1.100e-03   1.000e+00    -0.081
	KX                5.214e-10   5.214e-10   4.740e-07    -0.021
	NaX               5.309e-11   5.309e-11   4.826e-08    -0.020
	NH4X              1.155e-70   1.155e-70   1.050e-67    -0.021

-----------------------------Solution composition------------------------------

	Elements           Molality       Moles

	Ca                6.000e-04   6.000e-04
	Cl                1.200e-03   1.200e-03
	K                 5.819e-09   5.819e-09
	N                 1.018e-09   1.018e-09
	Na                2.970e-09   2.970e-09

----------------------------Description of solution----------------------------

                                       pH  =   6.997      Charge balance
                                       pe  =  13.613      Adjusted to redox equilibrium
                        Activity of water  =   1.000
                           Ionic strength  =   1.800e-03
                       Mass of water (kg)  =   1.000e+00
                 Total alkalinity (eq/kg)  =  -5.369e-19
                    Total carbon (mol/kg)  =   0 
                       Total CO2 (mol/kg)  =   0 
                      Temperature (deg C)  =  25.000
                  Electrical balance (eq)  =   1.015e-14
 Percent error, 100*(Cat-|An|)/(Cat+|An|)  =      0
                               Iterations  =   2
                                  Total H  = 1.110124e+02
                                  Total O  = 5.550667e+01

----------------------------Distribution of species----------------------------

                                                   Log       Log         Log 
   Species                 Molality    Activity  Molality  Activity     Gamma

   H+                     1.052e-07   1.006e-07    -6.978    -6.997    -0.019
   OH-                    1.043e-07   9.948e-08    -6.982    -7.002    -0.021
   H2O                    5.551e+01   1.000e+00     1.744         0        0
Ca               6.000e-04
   Ca+2                   6.000e-04   4.985e-04    -3.222    -3.302    -0.081
   CaOH+                  8.617e-10   8.221e-10    -9.065    -9.085    -0.020
Cl               1.200e-03
   Cl-                    1.200e-03   1.144e-03    -2.921    -2.941    -0.021
H(0)             0 
   H2                     0  0  -44.370   -44.370         0
K                5.819e-09
   K+                     5.819e-09   5.550e-09    -8.235    -8.256    -0.021
   KOH                    1.911e-16   1.912e-16   -15.719   -15.718         0
N(-3)            0 
   NH4+                   0  0  -68.790   -68.811    -0.021
   NH3                    0  0  -71.058   -71.058         0
N(0)             1.820e-31
   N2                     9.099e-32   9.103e-32   -31.041   -31.041         0
N(3)             2.278e-22
   NO2-                   2.278e-22   2.172e-22   -21.642   -21.663    -0.021
N(5)             1.018e-09
   NO3-                   1.018e-09   9.702e-10    -8.992    -9.013    -0.021
Na               2.970e-09
   Na+                    2.970e-09   2.834e-09    -8.527    -8.548    -0.020
   NaOH                   1.860e-16   1.861e-16   -15.731   -15.730         0
O(0)             4.580e-04
   O2                     2.290e-04   2.291e-04    -3.640    -3.640         0

------------------------------Saturation indices-------------------------------

	Phase               SI log IAP  log KT

	H2(g)           -41.22  -44.37   -3.15  H2
	H2O(g)           -1.51       0   1.51  H2O
	Halite          -13.07  -11.49    1.58  NaCl
	N2(g)           -27.78  -31.04   -3.26  N2
	NH3(g)          -72.83  -71.06    1.77  NH3
	O2(g)            -0.68   -3.64   -2.96  O2

Time 0.5. Cell 4: x=              1	y=              1	z=              0
Using solution 4.
Using exchange 4

-----------------------------Exchange composition------------------------------

X                1.100e-03 mol

	                               Equiv-    Equivalent      Log 
	Species             Moles      alents      Fraction     Gamma

	CaX2              5.500e-04   1.100e-03   1.000e+00    -0.081
	KX                5.214e-10   5.214e-10   4.740e-07    -0.021
	NaX               5.309e-11   5.309e-11   4.826e-08    -0.020
	NH4X              1.155e-70   1.155e-70   1.050e-67    -0.021

-----------------------------Solution composition------------------------------

	Elements           Molality       Moles

	Ca                6.000e-04   6.000e-04
	Cl                1.200e-03   1.200e-03
	K                 5.819e-09   5.819e-09
	N                 1.018e-09   1.018e-09
	Na                2.970e-09   2.970e-09

----------------------------Description of solution----------------------------

                                       pH  =   6.997      Charge balance
                                       pe  =  13.613      Adjusted to redox equilibrium
                        Activity of water  =   1.000
                           Ionic strength  =   1.800e-03
                       Mass of water (kg)  =   1.000e+00
                 Total alkalinity (eq/kg)  =  -6.311e-19
                    Total carbon (mol/kg)  =   0 
                       Total CO2 (mol/kg)  =   0 
                      Temperature (deg C)  =  25.000
                  Electrical balance (eq)  =   1.015e-14
 Percent error, 100*(Cat-|An|)/(Cat+|An|)  =      0
                               Iterations  =   2
                                  Total H  = 1.110124e+02
                                  Total O  = 5.550667e+01

----------------------------Distribution of species----------------------------

                                                   Log       Log         Log 
   Species                 Molality    Activity  Molality  Activity     Gamma

   H+                     1.052e-07   1.006e-07    -6.978    -6.997    -0.019
   OH-                    1.043e-07   9.948e-08    -6.982    -7.002    -0.021
   H2O                    5.551e+01   1.000e+00     1.744         0        0
Ca               6.000e-04
   Ca+2                   6.000e-04   4.985e-04    -3.222    -3.302    -0.081
   CaOH+                  8.617e-10   8.221e-10    -9.065    -9.085    -0.020
Cl               1.200e-03
   Cl-                    1.200e-03   1.144e-03    -2.921    -2.941    -0.021
H(0)             0 
   H2                     0  0  -44.370   -44.370         0
K                5.819e-09
   K+                     5.819e-09   5.550e-09    -8.235    -8.256    -0.021
   KOH                    1.911e-16   1.912e-16   -15.719   -15.718         0
N(-3)            0 
   NH4+                   0  0  -68.790   -68.811    -0.021
   NH3                    0  0  -71.058   -71.058         0
N(0)             1.820e-31
   N2                     9.099e-32   9.103e-32   -31.041   -31.041         0
N(3)             2.278e-22
   NO2-                   2.278e-22   2.172e-22   -21.642   -21.663    -0.021
N(5)             1.018e-09
   NO3-                   1.018e-09   9.702e-10    -8.992    -9.013    -0.021
Na               2.970e-09
   Na+                    2.970e-09   2.834e-09    -8.527    -8.548    -0.020
   NaOH                   1.860e-16   1.861e-16   -15.731   -15.730         0
O(0)             4.580e-04
   O2                     2.290e-04   2.291e-04    -3.640    -3.640         0

------------------------------Saturation indices-------------------------------

	Phase               SI log IAP  log KT

	H2(g)           -41.22  -44.37   -3.15  H2
	H2O(g)           -1.51       0   1.51  H2O
	Halite          -13.07  -11.49    1.58  NaCl
	N2(g)           -27.78  -31.04   -3.26  N2
	NH3(g)          -72.83  -71.06    1.77  NH3
	O2(g)            -0.68   -3.64   -2.96  O2

Time 0.5. Cell 5: x=              0	y=              0	z=          0.002
Using solution 5.
Using exchange 5

-----------------------------Exchange composition------------------------------

X                1.100e-03 mol

	                               Equiv-    Equivalent      Log 
	Species             Moles      alents      Fraction     Gamma

	CaX2              5.500e-04   1.100e-03   1.000e+00    -0.081
	KX                9.939e-10   9.939e-10   9.035e-07    -0.021
	NaX               1.011e-10   1.011e-10   9.191e-08    -0.020
	NH4X              2.197e-70   2.197e-70   1.997e-67    -0.021

-----------------------------Solution composition------------------------------

	Elements           Molality       Moles

	Ca                6.000e-04   6.000e-04
	Cl                1.200e-03   1.200e-03
	K                 1.109e-08   1.109e-08
	N                 1.936e-09   1.936e-09
	Na                5.655e-09   5.655e-09

----------------------------Description of solution----------------------------

                                       pH  =   6.997      Charge balance
                                       pe  =  13.613      Adjusted to redox equilibrium
                        Activity of water  =   1.000
                           Ionic strength  =   1.800e-03
                       Mass of water (kg)  =   1.000e+00
                 Total alkalinity (eq/kg)  =  -2.562e-19
                    Total carbon (mol/kg)  =   0 
                       Total CO2 (mol/kg)  =   0 
                      Temperature (deg C)  =  25.000
                  Electrical balance (eq)  =   1.939e-14
 Percent error, 100*(Cat-|An|)/(Cat+|An|)  =      0
                               Iterations  =   2
                                  Total H  = 1.110124e+02
                                  Total O  = 5.550667e+01

----------------------------Distribution of species----------------------------

                                                   Log       Log         Log 
   Species                 Molality    Activity  Molality  Activity     Gamma

   H+                     1.052e-07   1.006e-07    -6.978    -6.997    -0.019
   OH-                    1.043e-07   9.948e-08    -6.982    -7.002    -0.021
   H2O                    5.551e+01   1.000e+00     1.744         0        0
Ca               6.000e-04
   Ca+2                   6.000e-04   4.985e-04    -3.222    -3.302    -0.081
   CaOH+                  8.617e-10   8.221e-10    -9.065    -9.085    -0.020
Cl               1.200e-03
   Cl-                    1.200e-03   1.144e-03    -2.921    -2.941    -0.021
H(0)             0 
   H2                     0  0  -44.370   -44.370         0
K                1.109e-08
   K+                     1.109e-08   1.058e-08    -7.955    -7.976    -0.021
   KOH                    3.644e-16   3.645e-16   -15.438   -15.438         0
N(-3)            0 
   NH4+                   0  0  -68.511   -68.531    -0.021
   NH3                    0  0  -70.779   -70.778         0
N(0)             6.585e-31
   N2                     3.293e-31   3.294e-31   -30.482   -30.482         0
N(3)             4.334e-22
   NO2-                   4.334e-22   4.132e-22   -21.363   -21.384    -0.021
N(5)             1.936e-09
   NO3-                   1.936e-09   1.846e-09    -8.713    -8.734    -0.021
Na               5.655e-09
   Na+                    5.655e-09   5.396e-09    -8.248    -8.268    -0.020
   NaOH                   3.541e-16   3.543e-16   -15.451   -15.451         0
O(0)             4.580e-04
   O2                     2.290e-04   2.291e-04    -3.640    -3.640         0

------------------------------Saturation indices-------------------------------

	Phase               SI log IAP  log KT

	H2(g)           -41.22  -44.37   -3.15  H2
	H2O(g)           -1.51       0   1.51  H2O
	Halite          -12.79  -11.21    1.58  NaCl
	N2(g)           -27.22  -30.48   -3.26  N2
	NH3(g)          -72.55  -70.78    1.77  NH3
	O2(g)            -0.68   -3.64   -2.96  O2

Time 0.5. Cell 6: x=              1	y=              0	z=          0.002
Using solution 6.
Using exchange 6

-----------------------------Exchange composition------------------------------

X                1.100e-03 mol

	                               Equiv-    Equivalent      Log 
	Species             Moles      alents      Fraction     Gamma

	CaX2              5.500e-04   1.100e-03   1.000e+00    -0.081
	KX                9.939e-10   9.939e-10   9.035e-07    -0.021
	NaX               1.011e-10   1.011e-10   9.191e-08    -0.020
	NH4X              2.197e-70   2.197e-70   1.997e-67    -0.021

-----------------------------Solution composition------------------------------

	Elements           Molality       Moles

	Ca                6.000e-04   6.000e-04
	Cl                1.200e-03   1.200e-03
	K                 1.109e-08   1.109e-08
	N                 1.936e-09   1.936e-09
	Na                5.655e-09   5.655e-09

----------------------------Description of solution----------------------------

                                       pH  =   6.997      Charge balance
                                       pe  =  13.613      Adjusted to redox equilibrium
                        Activity of water  =   1.000
                           Ionic strength  =   1.800e-03
                       Mass of water (kg)  =   1.000e+00
                 Total alkalinity (eq/kg)  =   1.417e-19
                    Total carbon (mol/kg)  =   0 
                       Total CO2 (mol/kg)  =   0 
                      Temperature (deg C)  =  25.000
                  Electrical balance (eq)  =   1.940e-14
 Percent error, 100*(Cat-|An|)/(Cat+|An|)  =      0
                               Iterations  =   2
                                  Total H  = 1.110124e+02
                                  Total O  = 5.550667e+01

----------------------------Distribution of species----------------------------

                                                   Log       Log         Log 
   Species                 Molality    Activity  Molality  Activity     Gamma

   H+                     1.052e-07   1.006e-07    -6.978    -6.997    -0.019
   OH-                    1.043e-07   9.948e-08    -6.982    -7.002    -0.021
   H2O                    5.551e+01   1.000e+00     1.744         0        0
Ca               6.000e-04
   Ca+2                   6.000e-04   4.985e-04    -3.222    -3.302    -0.081
   CaOH+                  8.617e-10   8.221e-10    -9.065    -9.085    -0.020
Cl               1.200e-03
   Cl-                    1.200e-03   1.144e-03    -2.921    -2.941    -0.021
H(0)             0 
   H2                     0  0  -44.370   -44.370         0
K                1.109e-08
   K+                     1.109e-08   1.058e-08    -7.955    -7.976    -0.021
   KOH                    3.644e-16   3.645e-16   -15.438   -15.438         0
N(-3)            0 
   NH4+                   0  0  -68.511   -68.531    -0.021
   NH3                    0  0  -70.779   -70.778         0
N(0)             6.585e-31
   N2                     3.293e-31   3.294e-31   -30.482   -30.482         0
N(3)             4.334e-22
   NO2-                   4.334e-22   4.132e-22   -21.363   -21.384    -0.021
N(5)             1.936e-09
   NO3-                   1.936e-09   1.846e-09    -8.713    -8.734    -0.021
Na               5.655e-09
   Na+                    5.655e-09   5.396e-09    -8.248    -8.268    -0.020
   NaOH                   3.541e-16   3.543e-16   -15.451   -15.451         0
O(0)             4.580e-04
   O2                     2.290e-04   2.291e-04    -3.640    -3.640         0

------------------------------Saturation indices-------------------------------

	Phase               SI log IAP  log KT

	H2(g)           -41.22  -44.37   -3.15  H2
	H2O(g)           -1.51       0   1.51  H2O
	Halite          -12.79  -11.21    1.58  NaCl
	N2(g)           -27.22  -30.48   -3.26  N2
	NH3(g)          -72.55  -70.78    1.77  NH3
	O2(g)            -0.68   -3.64   -2.96  O2

Time 0.5. Cell 7: x=              0	y=              1	z=          0.002
Using solution 7.
Using exchange 7

-----------------------------Exchange composition------------------------------

X                1.100e-03 mol

	                               Equiv-    Equivalent      Log 
	Species             Moles      alents      Fraction     Gamma

	CaX2              5.500e-04   1.100e-03   1.000e+00    -0.081
	KX                9.939e-10   9.939e-10   9.035e-07    -0.021
	NaX               1.011e-10   1.011e-10   9.191e-08    -0.020
	NH4X              2.197e-70   2.197e-70   1.997e-67    -0.021

-----------------------------Solution composition------------------------------

	Elements           Molality       Moles

	Ca                6.000e-04   6.000e-04
	Cl                1.200e-03   1.200e-03
	K                 1.109e-08   1.109e-08
	N                 1.936e-09   1.936e-09
	Na                5.655e-09   5.655e-09

----------------------------Description of solution----------------------------

                                       pH  =   6.997      Charge balance
                                       pe  =  13.613      Adjusted to redox equilibrium
                        Activity of water  =   1.000
                           Ionic strength  =   1.800e-03
                       Mass of water (kg)  =   1.000e+00
                 Total alkalinity (eq/kg)  =   1.335e-19
                    Total carbon (mol/kg)  =   0 
                       Total CO2 (mol/kg)  =   0 
                      Temperature (deg C)  =  25.000
                  Electrical balance (eq)  =   1.940e-14
 Percent error, 100*(Cat-|An|)/(Cat+|An|)  =      0
                               Iterations  =   2
                                  Total H  = 1.110124e+02
                                  Total O  = 5.550667e+01

----------------------------Distribution of species----------------------------

                                                   Log       Log         Log 
   Species                 Molality    Activity  Molality  Activity     Gamma

   H+                     1.052e-07   1.006e-07    -6.978    -6.997    -0.019
   OH-                    1.043e-07   9.948e-08    -6.982    -7.002    -0.021
   H2O                    5.551e+01   1.000e+00     1.744         0        0
Ca               6.000e-04
   Ca+2                   6.000e-04   4.985e-04    -3.222    -3.302    -0.081
   CaOH+                  8.617e-10   8.221e-10    -9.065    -9.085    -0.020
Cl               1.200e-03
   Cl-                    1.200e-03   1.144e-03    -2.921    -2.941    -0.021
H(0)             0 
   H2                     0  0  -44.370   -44.370         0
K                1.109e-08
   K+                     1.109e-08   1.058e-08    -7.955    -7.976    -0.021
   KOH                    3.644e-16   3.645e-16   -15.438   -15.438         0
N(-3)            0 
   NH4+                   0  0  -68.511   -68.531    -0.021
   NH3                    0  0  -70.779   -70.778         0
N(0)             6.585e-31
   N2                     3.293e-31   3.294e-31   -30.482   -30.482         0
N(3)             4.334e-22
   NO2-                   4.334e-22   4.132e-22   -21.363   -21.384    -0.021
N(5)             1.936e-09
   NO3-                   1.936e-09   1.846e-09    -8.713    -8.734    -0.021
Na               5.655e-09
   Na+                    5.655e-09   5.396e-09    -8.248    -8.268    -0.020
   NaOH                   3.541e-16   3.543e-16   -15.451   -15.451         0
O(0)             4.580e-04
   O2                     2.290e-04   2.291e-04    -3.640    -3.640         0

------------------------------Saturation indices-------------------------------

	Phase               SI log IAP  log KT

	H2(g)           -41.22  -44.37   -3.15  H2
	H2O(g)           -1.51       0   1.51  H2O
	Halite          -12.79  -11.21    1.58  NaCl
	N2(g)           -27.22  -30.48   -3.26  N2
	NH3(g)          -72.55  -70.78    1.77  NH3
	O2(g)            -0.68   -3.64   -2.96  O2

Time 0.5. Cell 8: x=              1	y=              1	z=          0.002
Using solution 8.
Using exchange 8

-----------------------------Exchange composition------------------------------

X                1.100e-03 mol

	                               Equiv-    Equivalent      Log 
	Species             Moles      alents      Fraction     Gamma

	CaX2              5.500e-04   1.100e-03   1.000e+00    -0.081
	KX                9.939e-10   9.939e-10   9.035e-07    -0.021
	NaX               1.011e-10   1.011e-10   9.191e-08    -0.020
	NH4X              2.197e-70   2.197e-70   1.997e-67    -0.021

-----------------------------Solution composition------------------------------

	Elements           Molality       Moles

	Ca                6.000e-04   6.000e-04
	Cl                1.200e-03   1.200e-03
	K                 1.109e-08   1.109e-08
	N                 1.936e-09   1.936e-09
	Na                5.655e-09   5.655e-09

----------------------------Description of solution----------------------------

                                       pH  =   6.997      Charge balance
                                       pe  =  13.613      Adjusted to redox equilibrium
                        Activity of water  =   1.000
                           Ionic strength  =   1.800e-03
                       Mass of water (kg)  =   1.000e+00
                 Total alkalinity (eq/kg)  =   4.061e-21
                    Total carbon (mol/kg)  =   0 
                       Total CO2 (mol/kg)  =   0 
                      Temperature (deg C)  =  25.000
                  Electrical balance (eq)  =   1.939e-14
 Percent error, 100*(Cat-|An|)/(Cat+|An|)  =      0
                               Iterations  =   2
                                  Total H  = 1.110124e+02
                                  Total O  = 5.550667e+01

----------------------------Distribution of species----------------------------

                                                   Log       Log         Log 
   Species                 Molality    Activity  Molality  Activity     Gamma

   H+                     1.052e-07   1.006e-07    -6.978    -6.997    -0.019
   OH-                    1.043e-07   9.948e-08    -6.982    -7.002    -0.021
   H2O                    5.551e+01   1.000e+00     1.744         0        0
Ca               6.000e-04
   Ca+2                   6.000e-04   4.985e-04    -3.222    -3.302    -0.081
   CaOH+                  8.617e-10   8.221e-10    -9.065    -9.085    -0.020
Cl               1.200e-03
   Cl-                    1.200e-03   1.144e-03    -2.921    -2.941    -0.021
H(0)             0 
   H2                     0  0  -44.370   -44.370         0
K                1.109e-08
   K+                     1.109e-08   1.058e-08    -7.955    -7.976    -0.021
   KOH                    3.644e-16   3.645e-16   -15.438   -15.438         0
N(-3)            0 
   NH4+                   0  0  -68.511   -68.531    -0.021
   NH3                    0  0  -70.779   -70.778         0
N(0)             6.585e-31
   N2                     3.293e-31   3.294e-31   -30.482   -30.482         0
N(3)             4.334e-22
   NO2-                   4.334e-22   4.132e-22   -21.363   -21.384    -0.021
N(5)             1.936e-09
   NO3-                   1.936e-09   1.846e-09    -8.713    -8.734    -0.021
Na               5.655e-09
   Na+                    5.655e-09   5.396e-09    -8.248    -8.268    -0.020
   NaOH                   3.541e-16   3.543e-16   -15.451   -15.451         0
O(0)             4.580e-04
   O2                     2.290e-04   2.291e-04    -3.640    -3.640         0

------------------------------Saturation indices-------------------------------

	Phase               SI log IAP  log KT

	H2(g)           -41.22  -44.37   -3.15  H2
	H2O(g)           -1.51       0   1.51  H2O
	Halite          -12.79  -11.21    1.58  NaCl
	N2(g)           -27.22  -30.48   -3.26  N2
	NH3(g)          -72.55  -70.78    1.77  NH3
	O2(g)            -0.68   -3.64   -2.96  O2

Time 0.5. Cell 9: x=              0	y=              0	z=          0.004
Using solution 9.
Using exchange 9

-----------------------------Exchange composition------------------------------

X                1.100e-03 mol

	                               Equiv-    Equivalent      Log 
	Species             Moles      alents      Fraction     Gamma

	CaX2              5.500e-04   1.100e-03   1.000e+00    -0.081
	KX                1.753e-09   1.753e-09   1.593e-06    -0.021
	NaX               1.778e-10   1.778e-10   1.616e-07    -0.020
	NH4X              3.851e-70   3.851e-70   3.501e-67    -0.021

-----------------------------Solution composition------------------------------

	Elements           Molality       Moles

	Ca                6.000e-04   6.000e-04
	Cl                1.200e-03   1.200e-03
	K                 1.956e-08   1.956e-08
	N                 3.394e-09   3.394e-09
	Na                9.943e-09   9.943e-09

----------------------------Description of solution----------------------------

                                       pH  =   6.997      Charge balance
                                       pe  =  13.613      Adjusted to redox equilibrium
                        Activity of water  =   1.000
                           Ionic strength  =   1.800e-03
                       Mass of water (kg)  =   1.000e+00
                 Total alkalinity (eq/kg)  =  -2.227e-19
                    Total carbon (mol/kg)  =   0 
                       Total CO2 (mol/kg)  =   0 
                      Temperature (deg C)  =  25.000
                  Electrical balance (eq)  =   3.445e-14
 Percent error, 100*(Cat-|An|)/(Cat+|An|)  =      0
                               Iterations  =   2
                                  Total H  = 1.110124e+02
                                  Total O  = 5.550667e+01

----------------------------Distribution of species----------------------------

                                                   Log       Log         Log 
   Species                 Molality    Activity  Molality  Activity     Gamma

   H+                     1.052e-07   1.006e-07    -6.978    -6.997    -0.019
   OH-                    1.043e-07   9.948e-08    -6.982    -7.002    -0.021
   H2O                    5.551e+01   1.000e+00     1.744         0        0
Ca               6.000e-04
   Ca+2                   6.000e-04   4.985e-04    -3.222    -3.302    -0.081
   CaOH+                  8.617e-10   8.221e-10    -9.065    -9.085    -0.020
Cl               1.200e-03
   Cl-                    1.200e-03   1.144e-03    -2.921    -2.941    -0.021
H(0)             0 
   H2                     0  0  -44.370   -44.370         0
K                1.956e-08
   K+                     1.956e-08   1.865e-08    -7.709    -7.729    -0.021
   KOH                    6.425e-16   6.428e-16   -15.192   -15.192         0
N(-3)            0 
   NH4+                   0  0  -68.267   -68.288    -0.021
   NH3                    0  0  -70.535   -70.535         0
N(0)             2.024e-30
   N2                     1.012e-30   1.012e-30   -29.995   -29.995         0
N(3)             7.598e-22
   NO2-                   7.598e-22   7.243e-22   -21.119   -21.140    -0.021
N(5)             3.394e-09
   NO3-                   3.394e-09   3.236e-09    -8.469    -8.490    -0.021
Na               9.943e-09
   Na+                    9.943e-09   9.488e-09    -8.002    -8.023    -0.020
   NaOH                   6.227e-16   6.230e-16   -15.206   -15.206         0
O(0)             4.580e-04
   O2                     2.290e-04   2.291e-04    -3.640    -3.640         0

------------------------------Saturation indices-------------------------------

	Phase               SI log IAP  log KT

	H2(g)           -41.22  -44.37   -3.15  H2
	H2O(g)           -1.51       0   1.51  H2O
	Halite          -12.55  -10.96    1.58  NaCl
	N2(g)           -26.73  -29.99   -3.26  N2
	NH3(g)          -72.30  -70.53    1.77  NH3
	O2(g)            -0.68   -3.64   -2.96  O2

Time 0.5. Cell 10: x=              1	y=              0	z=          0.004
Using solution 10.
Using exchange 10

-----------------------------Exchange composition------------------------------

X                1.100e-03 mol

	                               Equiv-    Equivalent      Log 
	Species             Moles      alents      Fraction     Gamma

	CaX2              5.500e-04   1.100e-03   1.000e+00    -0.081
	KX                1.753e-09   1.753e-09   1.593e-06    -0.021
	NaX               1.778e-10   1.778e-10   1.616e-07    -0.020
	NH4X              3.851e-70   3.851e-70   3.501e-67    -0.021

-----------------------------Solution composition------------------------------

	Elements           Molality       Moles

	Ca                6.000e-04   6.000e-04
	Cl                1.200e-03   1.200e-03
	K                 1.956e-08   1.956e-08
	N                 3.394e-09   3.394e-09
	Na                9.943e-09   9.943e-09

----------------------------Description of solution----------------------------

                                       pH  =   6.997      Charge balance
                                       pe  =  13.613      Adjusted to redox equilibrium
                        Activity of water  =   1.000
                           Ionic strength  =   1.800e-03
                       Mass of water (kg)  =   1.000e+00
                 Total alkalinity (eq/kg)  =  -1.706e-19
                    Total carbon (mol/kg)  =   0 
                       Total CO2 (mol/kg)  =   0 
                      Temperature (deg C)  =  25.000
                  Electrical balance (eq)  =   3.445e-14
 Percent error, 100*(Cat-|An|)/(Cat+|An|)  =      0
                               Iterations  =   2
                                  Total H  = 1.110124e+02
                                  Total O  = 5.550667e+01

----------------------------Distribution of species----------------------------

                                                   Log       Log         Log 
   Species                 Molality    Activity  Molality  Activity     Gamma

   H+                     1.052e-07   1.006e-07    -6.978    -6.997    -0.019
   OH-                    1.043e-07   9.948e-08    -6.982    -7.002    -0.021
   H2O                    5.551e+01   1.000e+00     1.744         0        0
Ca               6.000e-04
   Ca+2                   6.000e-04   4.985e-04    -3.222    -3.302    -0.081
   CaOH+                  8.617e-10   8.221e-10    -9.065    -9.085    -0.020
Cl               1.200e-03
   Cl-                    1.200e-03   1.144e-03    -2.921    -2.941    -0.021
H(0)             0 
   H2                     0  0  -44.370   -44.370         0
K                1.956e-08
   K+                     1.956e-08   1.865e-08    -7.709    -7.729    -0.021
   KOH                    6.425e-16   6.428e-16   -15.192   -15.192         0
N(-3)            0 
   NH4+                   0  0  -68.267   -68.288    -0.021
   NH3                    0  0  -70.535   -70.535         0
N(0)             2.024e-30
   N2                     1.012e-30   1.012e-30   -29.995   -29.995         0
N(3)             7.598e-22
   NO2-                   7.598e-22   7.243e-22   -21.119   -21.140    -0.021
N(5)             3.394e-09
   NO3-                   3.394e-09   3.236e-09    -8.469    -8.490    -0.021
Na               9.943e-09
   Na+                    9.943e-09   9.488e-09    -8.002    -8.023    -0.020
   NaOH                   6.227e-16   6.230e-16   -15.206   -15.206         0
O(0)             4.580e-04
   O2                     2.290e-04   2.291e-04    -3.640    -3.640         0

------------------------------Saturation indices-------------------------------

	Phase               SI log IAP  log KT

	H2(g)           -41.22  -44.37   -3.15  H2
	H2O(g)           -1.51       0   1.51  H2O
	Halite          -12.55  -10.96    1.58  NaCl
	N2(g)           -26.73  -29.99   -3.26  N2
	NH3(g)          -72.30  -70.53    1.77  NH3
	O2(g)            -0.68   -3.64   -2.96  O2

Time 0.5. Cell 11: x=              0	y=              1	z=          0.004
Using solution 11.
Using exchange 11

-----------------------------Exchange composition------------------------------

X                1.100e-03 mol

	                               Equiv-    Equivalent      Log 
	Species             Moles      alents      Fraction     Gamma

	CaX2              5.500e-04   1.100e-03   1.000e+00    -0.081
	KX                1.753e-09   1.753e-09   1.593e-06    -0.021
	NaX               1.778e-10   1.778e-10   1.616e-07    -0.020
	NH4X              3.851e-70   3.851e-70   3.501e-67    -0.021

-----------------------------Solution composition------------------------------

	Elements           Molality       Moles

	Ca                6.000e-04   6.000e-04
	Cl                1.200e-03   1.200e-03
	K                 1.956e-08   1.956e-08
	N                 3.394e-09   3.394e-09
	Na                9.943e-09   9.943e-09

----------------------------Description of solution----------------------------

                                       pH  =   6.997      Charge balance
                                       pe  =  13.613      Adjusted to redox equilibrium
                        Activity of water  =   1.000
                           Ionic strength  =   1.800e-03
                       Mass of water (kg)  =   1.000e+00
                 Total alkalinity (eq/kg)  =   8.964e-20
                    Total carbon (mol/kg)  =   0 
                       Total CO2 (mol/kg)  =   0 
                      Temperature (deg C)  =  25.000
                  Electrical balance (eq)  =   3.445e-14
 Percent error, 100*(Cat-|An|)/(Cat+|An|)  =      0
                               Iterations  =   2
                                  Total H  = 1.110124e+02
                                  Total O  = 5.550667e+01

----------------------------Distribution of species----------------------------

                                                   Log       Log         Log 
   Species                 Molality    Activity  Molality  Activity     Gamma

   H+                     1.052e-07   1.006e-07    -6.978    -6.997    -0.019
   OH-                    1.043e-07   9.948e-08    -6.982    -7.002    -0.021
   H2O                    5.551e+01   1.000e+00     1.744         0        0
Ca               6.000e-04
   Ca+2                   6.000e-04   4.985e-04    -3.222    -3.302    -0.081
   CaOH+                  8.617e-10   8.221e-10    -9.065    -9.085    -0.020
Cl               1.200e-03
   Cl-                    1.200e-03   1.144e-03    -2.921    -2.941    -0.021
H(0)             0 
   H2                     0  0  -44.370   -44.370         0
K                1.956e-08
   K+                     1.956e-08   1.865e-08    -7.709    -7.729    -0.021
   KOH                    6.425e-16   6.428e-16   -15.192   -15.192         0
N(-3)            0 
   NH4+                   0  0  -68.267   -68.288    -0.021
   NH3                    0  0  -70.535   -70.535         0
N(0)             2.024e-30
   N2                     1.012e-30   1.012e-30   -29.995   -29.995         0
N(3)             7.598e-22
   NO2-                   7.598e-22   7.243e-22   -21.119   -21.140    -0.021
N(5)             3.394e-09
   NO3-                   3.394e-09   3.236e-09    -8.469    -8.490    -0.021
Na               9.943e-09
   Na+                    9.943e-09   9.488e-09    -8.002    -8.023    -0.020
   NaOH                   6.227e-16   6.230e-16   -15.206   -15.206         0
O(0)             4.580e-04
   O2                     2.290e-04   2.291e-04    -3.640    -3.640         0

------------------------------Saturation indices-------------------------------

	Phase               SI log IAP  log KT

	H2(g)           -41.22  -44.37   -3.15  H2
	H2O(g)           -1.51       0   1.51  H2O
	Halite          -12.55  -10.96    1.58  NaCl
	N2(g)           -26.73  -29.99   -3.26  N2
	NH3(g)          -72.30  -70.53    1.77  NH3
	O2(g)            -0.68   -3.64   -2.96  O2

Time 0.5. Cell 12: x=              1	y=              1	z=          0.004
Using solution 12.
Using exchange 12

-----------------------------Exchange composition------------------------------

X                1.100e-03 mol

	                               Equiv-    Equivalent      Log 
	Species             Moles      alents      Fraction     Gamma

	CaX2              5.500e-04   1.100e-03   1.000e+00    -0.081
	KX                1.753e-09   1.753e-09   1.593e-06    -0.021
	NaX               1.778e-10   1.778e-10   1.616e-07    -0.020
	NH4X              3.851e-70   3.851e-70   3.501e-67    -0.021

-----------------------------Solution composition------------------------------

	Elements           Molality       Moles

	Ca                6.000e-04   6.000e-04
	Cl                1.200e-03   1.200e-03
	K                 1.956e-08   1.956e-08
	N                 3.394e-09   3.394e-09
	Na                9.943e-09   9.943e-09

----------------------------Description of solution----------------------------

                                       pH  =   6.997      Charge balance
                                       pe  =  13.613      Adjusted to redox equilibrium
                        Activity of water  =   1.000
                           Ionic strength  =   1.800e-03
                       Mass of water (kg)  =   1.000e+00
                 Total alkalinity (eq/kg)  =  -2.219e-20
                    Total carbon (mol/kg)  =   0 
                       Total CO2 (mol/kg)  =   0 
                      Temperature (deg C)  =  25.000
                  Electrical balance (eq)  =   3.445e-14
 Percent error, 100*(Cat-|An|)/(Cat+|An|)  =      0
                               Iterations  =   2
                                  Total H  = 1.110124e+02
                                  Total O  = 5.550667e+01

----------------------------Distribution of species----------------------------

                                                   Log       Log         Log 
   Species                 Molality    Activity  Molality  Activity     Gamma

   H+                     1.052e-07   1.006e-07    -6.978    -6.997    -0.019
   OH-                    1.043e-07   9.948e-08    -6.982    -7.002    -0.021
   H2O                    5.551e+01   1.000e+00     1.744         0        0
Ca               6.000e-04
   Ca+2                   6.000e-04   4.985e-04    -3.222    -3.302    -0.081
   CaOH+                  8.617e-10   8.221e-10    -9.065    -9.085    -0.020
Cl               1.200e-03
   Cl-                    1.200e-03   1.144e-03    -2.921    -2.941    -0.021
H(0)             0 
   H2                     0  0  -44.370   -44.370         0
K                1.956e-08
   K+                     1.956e-08   1.865e-08    -7.709    -7.729    -0.021
   KOH                    6.425e-16   6.428e-16   -15.192   -15.192         0
N(-3)            0 
   NH4+                   0  0  -68.267   -68.288    -0.021
   NH3                    0  0  -70.535   -70.535         0
N(0)             2.024e-30
   N2                     1.012e-30   1.012e-30   -29.995   -29.995         0
N(3)             7.598e-22
   NO2-                   7.598e-22   7.243e-22   -21.119   -21.140    -0.021
N(5)             3.394e-09
   NO3-                   3.394e-09   3.236e-09    -8.469    -8.490    -0.021
Na               9.943e-09
   Na+                    9.943e-09   9.488e-09    -8.002    -8.023    -0.020
   NaOH                   6.227e-16   6.230e-16   -15.206   -15.206         0
O(0)             4.580e-04
   O2                     2.290e-04   2.291e-04    -3.640    -3.640         0

------------------------------Saturation indices-------------------------------

	Phase               SI log IAP  log KT

	H2(g)           -41.22  -44.37   -3.15  H2
	H2O(g)           -1.51       0   1.51  H2O
	Halite          -12.55  -10.96    1.58  NaCl
	N2(g)           -26.73  -29.99   -3.26  N2
	NH3(g)          -72.30  -70.53    1.77  NH3
	O2(g)            -0.68   -3.64   -2.96  O2

Time 0.5. Cell 13: x=              0	y=              0	z=          0.006
Using solution 13.
Using exchange 13

-----------------------------Exchange composition------------------------------

X                1.100e-03 mol

	                               Equiv-    Equivalent      Log 
	Species             Moles      alents      Fraction     Gamma

	CaX2              5.500e-04   1.100e-03   1.000e+00    -0.081
	KX                2.942e-09   2.942e-09   2.674e-06    -0.021
	NaX               2.971e-10   2.971e-10   2.701e-07    -0.020
	NH4X              6.408e-70   6.408e-70   5.825e-67    -0.021

-----------------------------Solution composition------------------------------

	Elements           Molality       Moles

	Ca                6.000e-04   6.000e-04
	Cl                1.200e-03   1.200e-03
	K                 3.283e-08   3.283e-08
	N                 5.647e-09   5.647e-09
	Na                1.662e-08   1.662e-08

----------------------------Description of solution----------------------------

                                       pH  =   6.997      Charge balance
                                       pe  =  13.613      Adjusted to redox equilibrium
                        Activity of water  =   1.000
                           Ionic strength  =   1.800e-03
                       Mass of water (kg)  =   1.000e+00
                 Total alkalinity (eq/kg)  =   1.787e-20
                    Total carbon (mol/kg)  =   0 
                       Total CO2 (mol/kg)  =   0 
                      Temperature (deg C)  =  25.000
                  Electrical balance (eq)  =   5.844e-14
 Percent error, 100*(Cat-|An|)/(Cat+|An|)  =      0
                               Iterations  =   2
                                  Total H  = 1.110124e+02
                                  Total O  = 5.550667e+01

----------------------------Distribution of species----------------------------

                                                   Log       Log         Log 
   Species                 Molality    Activity  Molality  Activity     Gamma

   H+                     1.052e-07   1.006e-07    -6.978    -6.997    -0.019
   OH-                    1.043e-07   9.948e-08    -6.982    -7.002    -0.021
   H2O                    5.551e+01   1.000e+00     1.744         0        0
Ca               6.000e-04
   Ca+2                   6.000e-04   4.985e-04    -3.222    -3.302    -0.081
   CaOH+                  8.617e-10   8.220e-10    -9.065    -9.085    -0.020
Cl               1.200e-03
   Cl-                    1.200e-03   1.144e-03    -2.921    -2.941    -0.021
H(0)             0 
   H2                     0  0  -44.370   -44.370         0
K                3.283e-08
   K+                     3.283e-08   3.131e-08    -7.484    -7.504    -0.021
   KOH                    1.078e-15   1.079e-15   -14.967   -14.967         0
N(-3)            0 
   NH4+                   0  0  -68.046   -68.066    -0.021
   NH3                    0  0  -70.314   -70.313         0
N(0)             5.604e-30
   N2                     2.802e-30   2.803e-30   -29.553   -29.552         0
N(3)             1.264e-21
   NO2-                   1.264e-21   1.205e-21   -20.898   -20.919    -0.021
N(5)             5.647e-09
   NO3-                   5.647e-09   5.384e-09    -8.248    -8.269    -0.021
Na               1.662e-08
   Na+                    1.662e-08   1.586e-08    -7.779    -7.800    -0.020
   NaOH                   1.041e-15   1.041e-15   -14.983   -14.982         0
O(0)             4.580e-04
   O2                     2.290e-04   2.291e-04    -3.640    -3.640         0

------------------------------Saturation indices-------------------------------

	Phase               SI log IAP  log KT

	H2(g)           -41.22  -44.37   -3.15  H2
	H2O(g)           -1.51       0   1.51  H2O
	Halite          -12.32  -10.74    1.58  NaCl
	N2(g)           -26.29  -29.55   -3.26  N2
	NH3(g)          -72.08  -70.31    1.77  NH3
	O2(g)            -0.68   -3.64   -2.96  O2

Time 0.5. Cell 14: x=              1	y=              0	z=          0.006
Using solution 14.
Using exchange 14

-----------------------------Exchange composition------------------------------

X                1.100e-03 mol

	                               Equiv-    Equivalent      Log 
	Species             Moles      alents      Fraction     Gamma

	CaX2              5.500e-04   1.100e-03   1.000e+00    -0.081
	KX                2.942e-09   2.942e-09   2.674e-06    -0.021
	NaX               2.971e-10   2.971e-10   2.701e-07    -0.020
	NH4X              6.408e-70   6.408e-70   5.825e-67    -0.021

-----------------------------Solution composition------------------------------

	Elements           Molality       Moles

	Ca                6.000e-04   6.000e-04
	Cl                1.200e-03   1.200e-03
	K                 3.283e-08   3.283e-08
	N                 5.647e-09   5.647e-09
	Na                1.662e-08   1.662e-08

----------------------------Description of solution----------------------------

                                       pH  =   6.997      Charge balance
                                       pe  =  13.613      Adjusted to redox equilibrium
                        Activity of water  =   1.000
                           Ionic strength  =   1.800e-03
                       Mass of water (kg)  =   1.000e+00
                 Total alkalinity (eq/kg)  =  -8.924e-20
                    Total carbon (mol/kg)  =   0 
                       Total CO2 (mol/kg)  =   0 
                      Temperature (deg C)  =  25.000
                  Electrical balance (eq)  =   5.844e-14
 Percent error, 100*(Cat-|An|)/(Cat+|An|)  =      0
                               Iterations  =   2
                                  Total H  = 1.110124e+02
                                  Total O  = 5.550667e+01

----------------------------Distribution of species----------------------------

                                                   Log       Log         Log 
   Species                 Molality    Activity  Molality  Activity     Gamma

   H+                     1.052e-07   1.006e-07    -6.978    -6.997    -0.019
   OH-                    1.043e-07   9.948e-08    -6.982    -7.002    -0.021
   H2O                    5.551e+01   1.000e+00     1.744         0        0
Ca               6.000e-04
   Ca+2                   6.000e-04   4.985e-04    -3.222    -3.302    -0.081
   CaOH+                  8.617e-10   8.220e-10    -9.065    -9.085    -0.020
Cl               1.200e-03
   Cl-                    1.200e-03   1.144e-03    -2.921    -2.941    -0.021
H(0)             0 
   H2                     0  0  -44.370   -44.370         0
K                3.283e-08
   K+                     3.283e-08   3.131e-08    -7.484    -7.504    -0.021
   KOH                    1.078e-15   1.079e-15   -14.967   -14.967         0
N(-3)            0 
   NH4+                   0  0  -68.046   -68.066    -0.021
   NH3                    0  0  -70.314   -70.313         0
N(0)             5.604e-30
   N2                     2.802e-30   2.803e-30   -29.553   -29.552         0
N(3)             1.264e-21
   NO2-                   1.264e-21   1.205e-21   -20.898   -20.919    -0.021
N(5)             5.647e-09
   NO3-                   5.647e-09   5.384e-09    -8.248    -8.269    -0.021
Na               1.662e-08
   Na+                    1.662e-08   1.586e-08    -7.779    -7.800    -0.020
   NaOH                   1.041e-15   1.041e-15   -14.983   -14.982         0
O(0)             4.580e-04
   O2                     2.290e-04   2.291e-04    -3.640    -3.640         0

------------------------------Saturation indices-------------------------------

	Phase               SI log IAP  log KT

	H2(g)           -41.22  -44.37   -3.15  H2
	H2O(g)           -1.51       0   1.51  H2O
	Halite          -12.32  -10.74    1.58  NaCl
	N2(g)           -26.29  -29.55   -3.26  N2
	NH3(g)          -72.08  -70.31    1.77  NH3
	O2(g)            -0.68   -3.64   -2.96  O2

Time 0.5. Cell 15: x=              0	y=              1	z=          0.006
Using solution 15.
Using exchange 15

-----------------------------Exchange composition------------------------------

X                1.100e-03 mol

	                               Equiv-    Equivalent      Log 
	Species             Moles      alents      Fraction     Gamma

	CaX2              5.500e-04   1.100e-03   1.000e+00    -0.081
	KX                2.942e-09   2.942e-09   2.674e-06    -0.021
	NaX               2.971e-10   2.971e-10   2.701e-07    -0.020
	NH4X              6.408e-70   6.408e-70   5.825e-67    -0.021

-----------------------------Solution composition------------------------------

	Elements           Molality       Moles

	Ca                6.000e-04   6.000e-04
	Cl                1.200e-03   1.200e-03
	K                 3.283e-08   3.283e-08
	N                 5.647e-09   5.647e-09
	Na                1.662e-08   1.662e-08

----------------------------Description of solution----------------------------

                                       pH  =   6.997      Charge balance
                                       pe  =  13.613      Adjusted to redox equilibrium
                        Activity of water  =   1.000
                           Ionic strength  =   1.800e-03
                       Mass of water (kg)  =   1.000e+00
                 Total alkalinity (eq/kg)  =   1.142e-19
                    Total carbon (mol/kg)  =   0 
                       Total CO2 (mol/kg)  =   0 
                      Temperature (deg C)  =  25.000
                  Electrical balance (eq)  =   5.844e-14
 Percent error, 100*(Cat-|An|)/(Cat+|An|)  =      0
                               Iterations  =   2
                                  Total H  = 1.110124e+02
                                  Total O  = 5.550667e+01

----------------------------Distribution of species----------------------------

                                                   Log       Log         Log 
   Species                 Molality    Activity  Molality  Activity     Gamma

   H+                     1.052e-07   1.006e-07    -6.978    -6.997    -0.019
   OH-                    1.043e-07   9.948e-08    -6.982    -7.002    -0.021
   H2O                    5.551e+01   1.000e+00     1.744         0        0
Ca               6.000e-04
   Ca+2                   6.000e-04   4.985e-04    -3.222    -3.302    -0.081
   CaOH+                  8.617e-10   8.220e-10    -9.065    -9.085    -0.020
Cl               1.200e-03
   Cl-                    1.200e-03   1.144e-03    -2.921    -2.941    -0.021
H(0)             0 
   H2                     0  0  -44.370   -44.370         0
K                3.283e-08
   K+                     3.283e-08   3.131e-08    -7.484    -7.504    -0.021
   KOH                    1.078e-15   1.079e-15   -14.967   -14.967         0
N(-3)            0 
   NH4+                   0  0  -68.046   -68.066    -0.021
   NH3                    0  0  -70.314   -70.313         0
N(0)             5.604e-30
   N2                     2.802e-30   2.803e-30   -29.553   -29.552         0
N(3)             1.264e-21
   NO2-                   1.264e-21   1.205e-21   -20.898   -20.919    -0.021
N(5)             5.647e-09
   NO3-                   5.647e-09   5.384e-09    -8.248    -8.269    -0.021
Na               1.662e-08
   Na+                    1.662e-08   1.586e-08    -7.779    -7.800    -0.020
   NaOH                   1.041e-15   1.041e-15   -14.983   -14.982         0
O(0)             4.580e-04
   O2                     2.290e-04   2.291e-04    -3.640    -3.640         0

------------------------------Saturation indices-------------------------------

	Phase               SI log IAP  log KT

	H2(g)           -41.22  -44.37   -3.15  H2
	H2O(g)           -1.51       0   1.51  H2O
	Halite          -12.32  -10.74    1.58  NaCl
	N2(g)           -26.29  -29.55   -3.26  N2
	NH3(g)          -72.08  -70.31    1.77  NH3
	O2(g)            -0.68   -3.64   -2.96  O2

Time 0.5. Cell 16: x=              1	y=              1	z=          0.006
Using solution 16.
Using exchange 16

-----------------------------Exchange composition------------------------------

X                1.100e-03 mol

	                               Equiv-    Equivalent      Log 
	Species             Moles      alents      Fraction     Gamma

	CaX2              5.500e-04   1.100e-03   1.000e+00    -0.081
	KX                2.942e-09   2.942e-09   2.674e-06    -0.021
	NaX               2.971e-10   2.971e-10   2.701e-07    -0.020
	NH4X              6.408e-70   6.408e-70   5.825e-67    -0.021

-----------------------------Solution composition------------------------------

	Elements           Molality       Moles

	Ca                6.000e-04   6.000e-04
	Cl                1.200e-03   1.200e-03
	K                 3.283e-08   3.283e-08
	N                 5.647e-09   5.647e-09
	Na                1.662e-08   1.662e-08

----------------------------Description of solution----------------------------

                                       pH  =   6.997      Charge balance
                                       pe  =  13.613      Adjusted to redox equilibrium
                        Activity of water  =   1.000
                           Ionic strength  =   1.800e-03
                       Mass of water (kg)  =   1.000e+00
                 Total alkalinity (eq/kg)  =  -2.071e-19
                    Total carbon (mol/kg)  =   0 
                       Total CO2 (mol/kg)  =   0 
                      Temperature (deg C)  =  25.000
                  Electrical balance (eq)  =   5.844e-14
 Percent error, 100*(Cat-|An|)/(Cat+|An|)  =      0
                               Iterations  =   2
                                  Total H  = 1.110124e+02
                                  Total O  = 5.550667e+01

----------------------------Distribution of species----------------------------

                                                   Log       Log         Log 
   Species                 Molality    Activity  Molality  Activity     Gamma

   H+                     1.052e-07   1.006e-07    -6.978    -6.997    -0.019
   OH-                    1.043e-07   9.948e-08    -6.982    -7.002    -0.021
   H2O                    5.551e+01   1.000e+00     1.744         0        0
Ca               6.000e-04
   Ca+2                   6.000e-04   4.985e-04    -3.222    -3.302    -0.081
   CaOH+                  8.617e-10   8.220e-10    -9.065    -9.085    -0.020
Cl               1.200e-03
   Cl-                    1.200e-03   1.144e-03    -2.921    -2.941    -0.021
H(0)             0 
   H2                     0  0  -44.370   -44.370         0
K                3.283e-08
   K+                     3.283e-08   3.131e-08    -7.484    -7.504    -0.021
   KOH                    1.078e-15   1.079e-15   -14.967   -14.967         0
N(-3)            0 
   NH4+                   0  0  -68.046   -68.066    -0.021
   NH3                    0  0  -70.314   -70.313         0
N(0)             5.604e-30
   N2                     2.802e-30   2.803e-30   -29.553   -29.552         0
N(3)             1.264e-21
   NO2-                   1.264e-21   1.205e-21   -20.898   -20.919    -0.021
N(5)             5.647e-09
   NO3-                   5.647e-09   5.384e-09    -8.248    -8.269    -0.021
Na               1.662e-08
   Na+                    1.662e-08   1.586e-08    -7.779    -7.800    -0.020
   NaOH                   1.041e-15   1.041e-15   -14.983   -14.982         0
O(0)             4.580e-04
   O2                     2.290e-04   2.291e-04    -3.640    -3.640         0

------------------------------Saturation indices-------------------------------

	Phase               SI log IAP  log KT

	H2(g)           -41.22  -44.37   -3.15  H2
	H2O(g)           -1.51       0   1.51  H2O
	Halite          -12.32  -10.74    1.58  NaCl
	N2(g)           -26.29  -29.55   -3.26  N2
	NH3(g)          -72.08  -70.31    1.77  NH3
	O2(g)            -0.68   -3.64   -2.96  O2

Time 0.5. Cell 17: x=              0	y=              0	z=          0.008
Using solution 17.
Using exchange 17

-----------------------------Exchange composition------------------------------

X                1.100e-03 mol

	                               Equiv-    Equivalent      Log 
	Species             Moles      alents      Fraction     Gamma

	CaX2              5.500e-04   1.100e-03   1.000e+00    -0.081
	KX                4.770e-09   4.770e-09   4.336e-06    -0.021
	NaX               4.791e-10   4.791e-10   4.356e-07    -0.020
	NH4X              1.027e-69   1.027e-69   9.340e-67    -0.021

-----------------------------Solution composition------------------------------

	Elements           Molality       Moles

	Ca                6.000e-04   6.000e-04
	Cl                1.200e-03   1.200e-03
	K                 5.323e-08   5.323e-08
	N                 9.055e-09   9.055e-09
	Na                2.680e-08   2.680e-08

----------------------------Description of solution----------------------------

                                       pH  =   6.997      Charge balance
                                       pe  =  13.613      Adjusted to redox equilibrium
                        Activity of water  =   1.000
                           Ionic strength  =   1.800e-03
                       Mass of water (kg)  =   1.000e+00
                 Total alkalinity (eq/kg)  =  -5.992e-19
                    Total carbon (mol/kg)  =   0 
                       Total CO2 (mol/kg)  =   0 
                      Temperature (deg C)  =  25.000
                  Electrical balance (eq)  =   9.604e-14
 Percent error, 100*(Cat-|An|)/(Cat+|An|)  =      0
                               Iterations  =   2
                                  Total H  = 1.110124e+02
                                  Total O  = 5.550667e+01

----------------------------Distribution of species----------------------------

                                                   Log       Log         Log 
   Species                 Molality    Activity  Molality  Activity     Gamma

   H+                     1.052e-07   1.006e-07    -6.978    -6.997    -0.019
   OH-                    1.043e-07   9.948e-08    -6.982    -7.002    -0.021
   H2O                    5.551e+01   1.000e+00     1.744         0        0
Ca               6.000e-04
   Ca+2                   6.000e-04   4.984e-04    -3.222    -3.302    -0.081
   CaOH+                  8.617e-10   8.220e-10    -9.065    -9.085    -0.020
Cl               1.200e-03
   Cl-                    1.200e-03   1.144e-03    -2.921    -2.941    -0.021
H(0)             0 
   H2                     0  0  -44.370   -44.370         0
K                5.323e-08
   K+                     5.323e-08   5.077e-08    -7.274    -7.294    -0.021
   KOH                    1.749e-15   1.749e-15   -14.757   -14.757         0
N(-3)            0 
   NH4+                   0  0  -67.841   -67.861    -0.021
   NH3                    0  0  -70.109   -70.108         0
N(0)             1.441e-29
   N2                     7.203e-30   7.206e-30   -29.142   -29.142         0
N(3)             2.027e-21
   NO2-                   2.027e-21   1.933e-21   -20.693   -20.714    -0.021
N(5)             9.055e-09
   NO3-                   9.055e-09   8.632e-09    -8.043    -8.064    -0.021
Na               2.680e-08
   Na+                    2.680e-08   2.557e-08    -7.572    -7.592    -0.020
   NaOH                   1.678e-15   1.679e-15   -14.775   -14.775         0
O(0)             4.580e-04
   O2                     2.290e-04   2.291e-04    -3.640    -3.640         0

------------------------------Saturation indices-------------------------------

	Phase               SI log IAP  log KT

	H2(g)           -41.22  -44.37   -3.15  H2
	H2O(g)           -1.51       0   1.51  H2O
	Halite          -12.12  -10.53    1.58  NaCl
	N2(g)           -25.88  -29.14   -3.26  N2
	NH3(g)          -71.88  -70.11    1.77  NH3
	O2(g)            -0.68   -3.64   -2.96  O2

Time 0.5. Cell 18: x=              1	y=              0	z=          0.008
Using solution 18.
Using exchange 18

-----------------------------Exchange composition------------------------------

X                1.100e-03 mol

	                               Equiv-    Equivalent      Log 
	Species             Moles      alents      Fraction     Gamma

	CaX2              5.500e-04   1.100e-03   1.000e+00    -0.081
	KX                4.770e-09   4.770e-09   4.336e-06    -0.021
	NaX               4.791e-10   4.791e-10   4.356e-07    -0.020
	NH4X              1.027e-69   1.027e-69   9.340e-67    -0.021

-----------------------------Solution composition------------------------------

	Elements           Molality       Moles

	Ca                6.000e-04   6.000e-04
	Cl                1.200e-03   1.200e-03
	K                 5.323e-08   5.323e-08
	N                 9.055e-09   9.055e-09
	Na                2.680e-08   2.680e-08

----------------------------Description of solution----------------------------

                                       pH  =   6.997      Charge balance
                                       pe  =  13.613      Adjusted to redox equilibrium
                        Activity of water  =   1.000
                           Ionic strength  =   1.800e-03
                       Mass of water (kg)  =   1.000e+00
                 Total alkalinity (eq/kg)  =  -8.818e-19
                    Total carbon (mol/kg)  =   0 
                       Total CO2 (mol/kg)  =   0 
                      Temperature (deg C)  =  25.000
                  Electrical balance (eq)  =   9.604e-14
 Percent error, 100*(Cat-|An|)/(Cat+|An|)  =      0
                               Iterations  =   2
                                  Total H  = 1.110124e+02
                                  Total O  = 5.550667e+01

----------------------------Distribution of species----------------------------

                                                   Log       Log         Log 
   Species                 Molality    Activity  Molality  Activity     Gamma

   H+                     1.052e-07   1.006e-07    -6.978    -6.997    -0.019
   OH-                    1.043e-07   9.948e-08    -6.982    -7.002    -0.021
   H2O                    5.551e+01   1.000e+00     1.744         0        0
Ca               6.000e-04
   Ca+2                   6.000e-04   4.984e-04    -3.222    -3.302    -0.081
   CaOH+                  8.617e-10   8.220e-10    -9.065    -9.085    -0.020
Cl               1.200e-03
   Cl-                    1.200e-03   1.144e-03    -2.921    -2.941    -0.021
H(0)             0 
   H2                     0  0  -44.370   -44.370         0
K                5.323e-08
   K+                     5.323e-08   5.077e-08    -7.274    -7.294    -0.021
   KOH                    1.749e-15   1.749e-15   -14.757   -14.757         0
N(-3)            0 
   NH4+                   0  0  -67.841   -67.861    -0.021
   NH3                    0  0  -70.109   -70.108         0
N(0)             1.441e-29
   N2                     7.203e-30   7.206e-30   -29.142   -29.142         0
N(3)             2.027e-21
   NO2-                   2.027e-21   1.933e-21   -20.693   -20.714    -0.021
N(5)             9.055e-09
   NO3-                   9.055e-09   8.632e-09    -8.043    -8.064    -0.021
Na               2.680e-08
   Na+                    2.680e-08   2.557e-08    -7.572    -7.592    -0.020
   NaOH                   1.678e-15   1.679e-15   -14.775   -14.775         0
O(0)             4.580e-04
   O2                     2.290e-04   2.291e-04    -3.640    -3.640         0

------------------------------Saturation indices-------------------------------

	Phase               SI log IAP  log KT

	H2(g)           -41.22  -44.37   -3.15  H2
	H2O(g)           -1.51       0   1.51  H2O
	Halite          -12.12  -10.53    1.58  NaCl
	N2(g)           -25.88  -29.14   -3.26  N2
[...]

   H+                     1.052e-07   1.006e-07    -6.978    -6.997    -0.019
   OH-                    1.043e-07   9.948e-08    -6.982    -7.002    -0.021
   H2O                    5.551e+01   1.000e+00     1.744         0        0
Ca               6.000e-04
   Ca+2                   6.000e-04   4.985e-04    -3.222    -3.302    -0.081
   CaOH+                  8.617e-10   8.221e-10    -9.065    -9.085    -0.020
Cl               1.200e-03
   Cl-                    1.200e-03   1.144e-03    -2.921    -2.941    -0.021
H(0)             0 
   H2                     0  0  -44.370   -44.370         0
O(0)             4.580e-04
   O2                     2.290e-04   2.291e-04    -3.640    -3.640         0

------------------------------Saturation indices-------------------------------

	Phase               SI log IAP  log KT

	H2(g)           -41.22  -44.37   -3.15  H2
	H2O(g)           -1.51       0   1.51  H2O
	O2(g)            -0.68   -3.64   -2.96  O2

Time 1. Cell 158: x=              1	y=              0	z=          0.078
Using solution 158.
Using exchange 158

-----------------------------Exchange composition------------------------------

X                1.100e-03 mol

	                               Equiv-    Equivalent      Log 
	Species             Moles      alents      Fraction     Gamma

	CaX2              5.500e-04   1.100e-03   1.000e+00    -0.081

-----------------------------Solution composition------------------------------

	Elements           Molality       Moles

	Ca                6.000e-04   6.001e-04
	Cl                1.200e-03   1.200e-03

----------------------------Description of solution----------------------------

                                       pH  =   6.997      Charge balance
                                       pe  =  13.613      Adjusted to redox equilibrium
                        Activity of water  =   1.000
                           Ionic strength  =   1.800e-03
                       Mass of water (kg)  =   1.000e+00
                 Total alkalinity (eq/kg)  =  -2.553e-15
                    Total carbon (mol/kg)  =   0 
                       Total CO2 (mol/kg)  =   0 
                      Temperature (deg C)  =  25.000
                  Electrical balance (eq)  =   2.556e-15
 Percent error, 100*(Cat-|An|)/(Cat+|An|)  =      0
                               Iterations  =   0
                                  Total H  = 1.110324e+02
                                  Total O  = 5.551667e+01

----------------------------Distribution of species----------------------------

                                                   Log       Log         Log 
   Species                 Molality    Activity  Molality  Activity     Gamma

   H+                     1.052e-07   1.006e-07    -6.978    -6.997    -0.019
   OH-                    1.043e-07   9.948e-08    -6.982    -7.002    -0.021
   H2O                    5.551e+01   1.000e+00     1.744         0        0
Ca               6.000e-04
   Ca+2                   6.000e-04   4.985e-04    -3.222    -3.302    -0.081
   CaOH+                  8.617e-10   8.221e-10    -9.065    -9.085    -0.020
Cl               1.200e-03
   Cl-                    1.200e-03   1.144e-03    -2.921    -2.941    -0.021
H(0)             0 
   H2                     0  0  -44.370   -44.370         0
O(0)             4.580e-04
   O2                     2.290e-04   2.291e-04    -3.640    -3.640         0

------------------------------Saturation indices-------------------------------

	Phase               SI log IAP  log KT

	H2(g)           -41.22  -44.37   -3.15  H2
	H2O(g)           -1.51       0   1.51  H2O
	O2(g)            -0.68   -3.64   -2.96  O2

Time 1. Cell 159: x=              0	y=              1	z=          0.078
Using solution 159.
Using exchange 159

-----------------------------Exchange composition------------------------------

X                1.100e-03 mol

	                               Equiv-    Equivalent      Log 
	Species             Moles      alents      Fraction     Gamma

	CaX2              5.500e-04   1.100e-03   1.000e+00    -0.081

-----------------------------Solution composition------------------------------

	Elements           Molality       Moles

	Ca                6.000e-04   6.001e-04
	Cl                1.200e-03   1.200e-03

----------------------------Description of solution----------------------------

                                       pH  =   6.997      Charge balance
                                       pe  =  13.613      Adjusted to redox equilibrium
                        Activity of water  =   1.000
                           Ionic strength  =   1.800e-03
                       Mass of water (kg)  =   1.000e+00
                 Total alkalinity (eq/kg)  =  -2.553e-15
                    Total carbon (mol/kg)  =   0 
                       Total CO2 (mol/kg)  =   0 
                      Temperature (deg C)  =  25.000
                  Electrical balance (eq)  =   2.556e-15
 Percent error, 100*(Cat-|An|)/(Cat+|An|)  =      0
                               Iterations  =   0
                                  Total H  = 1.110324e+02
                                  Total O  = 5.551667e+01

----------------------------Distribution of species----------------------------

                                                   Log       Log         Log 
   Species                 Molality    Activity  Molality  Activity     Gamma

   H+                     1.052e-07   1.006e-07    -6.978    -6.997    -0.019
   OH-                    1.043e-07   9.948e-08    -6.982    -7.002    -0.021
   H2O                    5.551e+01   1.000e+00     1.744         0        0
Ca               6.000e-04
   Ca+2                   6.000e-04   4.985e-04    -3.222    -3.302    -0.081
   CaOH+                  8.617e-10   8.221e-10    -9.065    -9.085    -0.020
Cl               1.200e-03
   Cl-                    1.200e-03   1.144e-03    -2.921    -2.941    -0.021
H(0)             0 
   H2                     0  0  -44.370   -44.370         0
O(0)             4.580e-04
   O2                     2.290e-04   2.291e-04    -3.640    -3.640         0

------------------------------Saturation indices-------------------------------

	Phase               SI log IAP  log KT

	H2(g)           -41.22  -44.37   -3.15  H2
	H2O(g)           -1.51       0   1.51  H2O
	O2(g)            -0.68   -3.64   -2.96  O2

Time 1. Cell 160: x=              1	y=              1	z=          0.078
Using solution 160.
Using exchange 160

-----------------------------Exchange composition------------------------------

X                1.100e-03 mol

	                               Equiv-    Equivalent      Log 
	Species             Moles      alents      Fraction     Gamma

	CaX2              5.500e-04   1.100e-03   1.000e+00    -0.081

-----------------------------Solution composition------------------------------

	Elements           Molality       Moles

	Ca                6.000e-04   6.001e-04
	Cl                1.200e-03   1.200e-03

----------------------------Description of solution----------------------------

                                       pH  =   6.997      Charge balance
                                       pe  =  13.613      Adjusted to redox equilibrium
                        Activity of water  =   1.000
                           Ionic strength  =   1.800e-03
                       Mass of water (kg)  =   1.000e+00
                 Total alkalinity (eq/kg)  =  -2.553e-15
                    Total carbon (mol/kg)  =   0 
                       Total CO2 (mol/kg)  =   0 
                      Temperature (deg C)  =  25.000
                  Electrical balance (eq)  =   2.556e-15
 Percent error, 100*(Cat-|An|)/(Cat+|An|)  =      0
                               Iterations  =   0
                                  Total H  = 1.110324e+02
                                  Total O  = 5.551667e+01

----------------------------Distribution of species----------------------------

                                                   Log       Log         Log 
   Species                 Molality    Activity  Molality  Activity     Gamma

   H+                     1.052e-07   1.006e-07    -6.978    -6.997    -0.019
   OH-                    1.043e-07   9.948e-08    -6.982    -7.002    -0.021
   H2O                    5.551e+01   1.000e+00     1.744         0        0
Ca               6.000e-04
   Ca+2                   6.000e-04   4.985e-04    -3.222    -3.302    -0.081
   CaOH+                  8.617e-10   8.221e-10    -9.065    -9.085    -0.020
Cl               1.200e-03
   Cl-                    1.200e-03   1.144e-03    -2.921    -2.941    -0.021
H(0)             0 
   H2                     0  0  -44.370   -44.370         0
O(0)             4.580e-04
   O2                     2.290e-04   2.291e-04    -3.640    -3.640         0

------------------------------Saturation indices-------------------------------

	Phase               SI log IAP  log KT

	H2(g)           -41.22  -44.37   -3.15  H2
	H2O(g)           -1.51       0   1.51  H2O
	O2(g)            -0.68   -3.64   -2.96  O2

Time 1. Cell 161: x=              0	y=              0	z=           0.08
Using solution 161.
Using exchange 161

-----------------------------Exchange composition------------------------------

X                1.100e-03 mol

	                               Equiv-    Equivalent      Log 
	Species             Moles      alents      Fraction     Gamma

	CaX2              5.500e-04   1.100e-03   1.000e+00    -0.081

-----------------------------Solution composition------------------------------

	Elements           Molality       Moles

	Ca                6.000e-04   6.000e-04
	Cl                1.200e-03   1.200e-03

----------------------------Description of solution----------------------------

                                       pH  =   6.997      Charge balance
                                       pe  =  13.613      Adjusted to redox equilibrium
                        Activity of water  =   1.000
                           Ionic strength  =   1.800e-03
                       Mass of water (kg)  =   1.000e+00
                 Total alkalinity (eq/kg)  =  -2.570e-15
                    Total carbon (mol/kg)  =   0 
                       Total CO2 (mol/kg)  =   0 
                      Temperature (deg C)  =  25.000
                  Electrical balance (eq)  =   2.573e-15
 Percent error, 100*(Cat-|An|)/(Cat+|An|)  =      0
                               Iterations  =   0
                                  Total H  = 1.110124e+02
                                  Total O  = 5.550667e+01

----------------------------Distribution of species----------------------------

                                                   Log       Log         Log 
   Species                 Molality    Activity  Molality  Activity     Gamma

   H+                     1.052e-07   1.006e-07    -6.978    -6.997    -0.019
   OH-                    1.043e-07   9.948e-08    -6.982    -7.002    -0.021
   H2O                    5.551e+01   1.000e+00     1.744         0        0
Ca               6.000e-04
   Ca+2                   6.000e-04   4.985e-04    -3.222    -3.302    -0.081
   CaOH+                  8.617e-10   8.221e-10    -9.065    -9.085    -0.020
Cl               1.200e-03
   Cl-                    1.200e-03   1.144e-03    -2.921    -2.941    -0.021
H(0)             0 
   H2                     0  0  -44.370   -44.370         0
O(0)             4.580e-04
   O2                     2.290e-04   2.291e-04    -3.640    -3.640         0

------------------------------Saturation indices-------------------------------

	Phase               SI log IAP  log KT

	H2(g)           -41.22  -44.37   -3.15  H2
	H2O(g)           -1.51       0   1.51  H2O
	O2(g)            -0.68   -3.64   -2.96  O2

Time 1. Cell 162: x=              1	y=              0	z=           0.08
Using solution 162.
Using exchange 162

-----------------------------Exchange composition------------------------------

X                1.100e-03 mol

	                               Equiv-    Equivalent      Log 
	Species             Moles      alents      Fraction     Gamma

	CaX2              5.500e-04   1.100e-03   1.000e+00    -0.081

-----------------------------Solution composition------------------------------

	Elements           Molality       Moles

	Ca                6.000e-04   6.000e-04
	Cl                1.200e-03   1.200e-03

----------------------------Description of solution----------------------------

                                       pH  =   6.997      Charge balance
                                       pe  =  13.613      Adjusted to redox equilibrium
                        Activity of water  =   1.000
                           Ionic strength  =   1.800e-03
                       Mass of water (kg)  =   1.000e+00
                 Total alkalinity (eq/kg)  =  -2.571e-15
                    Total carbon (mol/kg)  =   0 
                       Total CO2 (mol/kg)  =   0 
                      Temperature (deg C)  =  25.000
                  Electrical balance (eq)  =   2.573e-15
 Percent error, 100*(Cat-|An|)/(Cat+|An|)  =      0
                               Iterations  =   0
                                  Total H  = 1.110124e+02
                                  Total O  = 5.550667e+01

----------------------------Distribution of species----------------------------

                                                   Log       Log         Log 
   Species                 Molality    Activity  Molality  Activity     Gamma

   H+                     1.052e-07   1.006e-07    -6.978    -6.997    -0.019
   OH-                    1.043e-07   9.948e-08    -6.982    -7.002    -0.021
   H2O                    5.551e+01   1.000e+00     1.744         0        0
Ca               6.000e-04
   Ca+2                   6.000e-04   4.985e-04    -3.222    -3.302    -0.081
   CaOH+                  8.617e-10   8.221e-10    -9.065    -9.085    -0.020
Cl               1.200e-03
   Cl-                    1.200e-03   1.144e-03    -2.921    -2.941    -0.021
H(0)             0 
   H2                     0  0  -44.370   -44.370         0
O(0)             4.580e-04
   O2                     2.290e-04   2.291e-04    -3.640    -3.640         0

------------------------------Saturation indices-------------------------------

	Phase               SI log IAP  log KT

	H2(g)           -41.22  -44.37   -3.15  H2
	H2O(g)           -1.51       0   1.51  H2O
	O2(g)            -0.68   -3.64   -2.96  O2

Time 1. Cell 163: x=              0	y=              1	z=           0.08
Using solution 163.
Using exchange 163

-----------------------------Exchange composition------------------------------

X                1.100e-03 mol

	                               Equiv-    Equivalent      Log 
	Species             Moles      alents      Fraction     Gamma

	CaX2              5.500e-04   1.100e-03   1.000e+00    -0.081

-----------------------------Solution composition------------------------------

	Elements           Molality       Moles

	Ca                6.000e-04   6.000e-04
	Cl                1.200e-03   1.200e-03

----------------------------Description of solution----------------------------

                                       pH  =   6.997      Charge balance
                                       pe  =  13.613      Adjusted to redox equilibrium
                        Activity of water  =   1.000
                           Ionic strength  =   1.800e-03
                       Mass of water (kg)  =   1.000e+00
                 Total alkalinity (eq/kg)  =  -2.570e-15
                    Total carbon (mol/kg)  =   0 
                       Total CO2 (mol/kg)  =   0 
                      Temperature (deg C)  =  25.000
                  Electrical balance (eq)  =   2.573e-15
 Percent error, 100*(Cat-|An|)/(Cat+|An|)  =      0
                               Iterations  =   0
                                  Total H  = 1.110124e+02
                                  Total O  = 5.550667e+01

----------------------------Distribution of species----------------------------

                                                   Log       Log         Log 
   Species                 Molality    Activity  Molality  Activity     Gamma

   H+                     1.052e-07   1.006e-07    -6.978    -6.997    -0.019
   OH-                    1.043e-07   9.948e-08    -6.982    -7.002    -0.021
   H2O                    5.551e+01   1.000e+00     1.744         0        0
Ca               6.000e-04
   Ca+2                   6.000e-04   4.985e-04    -3.222    -3.302    -0.081
   CaOH+                  8.617e-10   8.221e-10    -9.065    -9.085    -0.020
Cl               1.200e-03
   Cl-                    1.200e-03   1.144e-03    -2.921    -2.941    -0.021
H(0)             0 
   H2                     0  0  -44.370   -44.370         0
O(0)             4.580e-04
   O2                     2.290e-04   2.291e-04    -3.640    -3.640         0

------------------------------Saturation indices-------------------------------

	Phase               SI log IAP  log KT

	H2(g)           -41.22  -44.37   -3.15  H2
	H2O(g)           -1.51       0   1.51  H2O
	O2(g)            -0.68   -3.64   -2.96  O2

Time 1. Cell 164: x=              1	y=              1	z=           0.08
Using solution 164.
Using exchange 164

-----------------------------Exchange composition------------------------------

X                1.100e-03 mol

	                               Equiv-    Equivalent      Log 
	Species             Moles      alents      Fraction     Gamma

	CaX2              5.500e-04   1.100e-03   1.000e+00    -0.081

-----------------------------Solution composition------------------------------

	Elements           Molality       Moles

	Ca                6.000e-04   6.000e-04
	Cl                1.200e-03   1.200e-03

----------------------------Description of solution----------------------------

                                       pH  =   6.997      Charge balance
                                       pe  =  13.613      Adjusted to redox equilibrium
                        Activity of water  =   1.000
                           Ionic strength  =   1.800e-03
                       Mass of water (kg)  =   1.000e+00
                 Total alkalinity (eq/kg)  =  -2.570e-15
                    Total carbon (mol/kg)  =   0 
                       Total CO2 (mol/kg)  =   0 
                      Temperature (deg C)  =  25.000
                  Electrical balance (eq)  =   2.573e-15
 Percent error, 100*(Cat-|An|)/(Cat+|An|)  =      0
                               Iterations  =   0
                                  Total H  = 1.110124e+02
                                  Total O  = 5.550667e+01

----------------------------Distribution of species----------------------------

                                                   Log       Log         Log 
   Species                 Molality    Activity  Molality  Activity     Gamma

   H+                     1.052e-07   1.006e-07    -6.978    -6.997    -0.019
   OH-                    1.043e-07   9.948e-08    -6.982    -7.002    -0.021
   H2O                    5.551e+01   1.000e+00     1.744         0        0
Ca               6.000e-04
   Ca+2                   6.000e-04   4.985e-04    -3.222    -3.302    -0.081
   CaOH+                  8.617e-10   8.221e-10    -9.065    -9.085    -0.020
Cl               1.200e-03
   Cl-                    1.200e-03   1.144e-03    -2.921    -2.941    -0.021
H(0)             0 
   H2                     0  0  -44.370   -44.370         0
O(0)             4.580e-04
   O2                     2.290e-04   2.291e-04    -3.640    -3.640         0

------------------------------Saturation indices-------------------------------

	Phase               SI log IAP  log KT

	H2(g)           -41.22  -44.37   -3.15  H2
	H2O(g)           -1.51       0   1.51  H2O
	O2(g)            -0.68   -3.64   -2.96  O2

