Output file:    linear_ic.O.chem
Chemistry file: linear_ic.chem.dat
Database file:  phast.dat

------------------
Reading data base.
------------------

	SOLUTION_MASTER_SPECIES
	SOLUTION_SPECIES
	PHASES
	EXCHANGE_MASTER_SPECIES
	EXCHANGE_SPECIES
	SURFACE_MASTER_SPECIES
	SURFACE_SPECIES
	RATES
	END
------------------------------------
Reading input data for simulation 1.
------------------------------------

	KNOBS
	        convergence_tolerance 1e-12
	SURFACE_MASTER_SPECIES
	        Surf  SurfOH
	SURFACE_SPECIES
	        SurfOH = SurfOH
	        log_k  0.0
	EXCHANGE_MASTER_SPECIES
	        Y       Y-
	EXCHANGE_SPECIES
	        Y- = Y-
	        log_k           0.0
	        Na+ + Y- = NaY
	        log_k           0.0
	        gamma  4.0     0.075
	        Ca+2 + 2Y- = CaY2
	        log_k   0.8
	        gamma  5.0     0.165
	        Ba+2 + 2Y- = BaY2
	        log_k   0.91
	        gamma  5.0     0.0
	SOLUTION 1
	        units  mmol/kgw
	        Na      1.0     charge
	        Cl      1.0
	        Br      1.0
	SOLUTION 2
	        units  mmol/kgw
	        Na      2.0     charge
	        Cl      2.0
	END
-------------------------------------------
Beginning of initial solution calculations.
-------------------------------------------

Initial solution 1.	

-----------------------------Solution composition------------------------------

	Elements           Molality       Moles

	Br                1.000e-03   1.000e-03
	Cl                1.000e-03   1.000e-03
	Na                2.000e-03   2.000e-03  Charge balance

----------------------------Description of solution----------------------------

                                       pH  =   7.000    
                                       pe  =   4.000    
                        Activity of water  =   1.000
                           Ionic strength  =   2.000e-03
                       Mass of water (kg)  =   1.000e+00
                 Total alkalinity (eq/kg)  =   6.056e-10
                    Total carbon (mol/kg)  =   0.000e+00
                       Total CO2 (mol/kg)  =   0.000e+00
                      Temperature (deg C)  =  25.000
                  Electrical balance (eq)  =   3.454e-17
 Percent error, 100*(Cat-|An|)/(Cat+|An|)  =      0
                               Iterations  =   8
                                  Total H  = 1.110124e+02
                                  Total O  = 5.550622e+01

----------------------------Distribution of species----------------------------

                                                   Log       Log         Log 
   Species                 Molality    Activity  Molality  Activity     Gamma

   OH-                    1.052e-07   1.001e-07    -6.978    -7.000    -0.022
   H+                     1.047e-07   1.000e-07    -6.980    -7.000    -0.020
   H2O                    5.551e+01   9.999e-01     1.744         0         0
Br               1.000e-03
   Br-                    1.000e-03   9.510e-04    -3.000    -3.022    -0.022
Cl               1.000e-03
   Cl-                    1.000e-03   9.514e-04    -3.000    -3.022    -0.022
H(0)             1.415e-25
   H2                     7.076e-26   7.079e-26   -25.150   -25.150         0
Na               2.000e-03
   Na+                    2.000e-03   1.904e-03    -2.699    -2.720    -0.021
   NaOH                   1.257e-10   1.258e-10    -9.901    -9.900         0
O(0)             0.000e+00
   O2                     0.000e+00   0.000e+00   -42.080   -42.080         0

------------------------------Saturation indices-------------------------------

	Phase               SI log IAP  log KT

	H2(g)           -22.00  -25.15   -3.15  H2
	H2O(g)           -1.51       0    1.51  H2O
	Halite           -7.32   -5.74    1.58  NaCl
	O2(g)           -39.12  -42.08   -2.96  O2

Initial solution 2.	

-----------------------------Solution composition------------------------------

	Elements           Molality       Moles

	Cl                2.000e-03   2.000e-03
	Na                2.000e-03   2.000e-03  Charge balance

----------------------------Description of solution----------------------------

                                       pH  =   7.000    
                                       pe  =   4.000    
                        Activity of water  =   1.000
                           Ionic strength  =   2.000e-03
                       Mass of water (kg)  =   1.000e+00
                 Total alkalinity (eq/kg)  =   6.056e-10
                    Total carbon (mol/kg)  =   0.000e+00
                       Total CO2 (mol/kg)  =   0.000e+00
                      Temperature (deg C)  =  25.000
                  Electrical balance (eq)  =   2.882e-18
 Percent error, 100*(Cat-|An|)/(Cat+|An|)  =      0
                               Iterations  =   9
                                  Total H  = 1.110124e+02
                                  Total O  = 5.550622e+01

----------------------------Distribution of species----------------------------

                                                   Log       Log         Log 
   Species                 Molality    Activity  Molality  Activity     Gamma

   OH-                    1.052e-07   1.001e-07    -6.978    -7.000    -0.022
   H+                     1.047e-07   1.000e-07    -6.980    -7.000    -0.020
   H2O                    5.551e+01   9.999e-01     1.744         0         0
Cl               2.000e-03
   Cl-                    2.000e-03   1.903e-03    -2.699    -2.721    -0.022
H(0)             1.415e-25
   H2                     7.076e-26   7.079e-26   -25.150   -25.150         0
Na               2.000e-03
   Na+                    2.000e-03   1.904e-03    -2.699    -2.720    -0.021
   NaOH                   1.257e-10   1.258e-10    -9.901    -9.900         0
O(0)             0.000e+00
   O2                     0.000e+00   0.000e+00   -42.080   -42.080         0

------------------------------Saturation indices-------------------------------

	Phase               SI log IAP  log KT

	H2(g)           -22.00  -25.15   -3.15  H2
	H2O(g)           -1.51       0    1.51  H2O
	Halite           -7.02   -5.44    1.58  NaCl
	O2(g)           -39.12  -42.08   -2.96  O2

------------------
End of simulation.
------------------

------------------------------------
Reading input data for simulation 2.
------------------------------------

	EQUILIBRIUM_PHASES 1
	        Calcite         0.0     1.0
	        Chalcedony      0.0     .001
	EQUILIBRIUM_PHASES 2
	        Calcite         0.0     2.0
	END
------------------
End of simulation.
------------------

------------------------------------
Reading input data for simulation 3.
------------------------------------

	SURFACE 1
	        Hfo_wOH         1.0     600     1
	        SurfOH          1.0     600     1
	SURFACE 2
	        Hfo_wOH         2.0     600     2
	END
------------------
End of simulation.
------------------

------------------------------------
Reading input data for simulation 4.
------------------------------------

	EXCHANGE 1
	        NaX             1.0
	        NaY             1.0
	EXCHANGE 2              
	        NaX             2.0
	END
------------------
End of simulation.
------------------

------------------------------------
Reading input data for simulation 5.
------------------------------------

	SOLID_SOLUTION 1
	        CaSrBaSO4    # greater than 2 components, ideal
	                component   Anhydrite   1.
	                component   Celestite   0.1
	                component   Barite      0.01
	        SrCaCO3
	                component   siderite    1.0
	                component   rhodochrosite  0.1
	SOLID_SOLUTION 2
	        CaSrBaSO4    # greater than 2 components, ideal
	                component   Anhydrite   2
	                component   Celestite   0.2
	                component   Barite      0.02
	END
------------------
End of simulation.
------------------

------------------------------------
Reading input data for simulation 6.
------------------------------------

	GAS_PHASE 1
	        fixed_volume
	        volume 1
	        N2(g)      0.78
	        O2(g)      .0003
	GAS_PHASE 2
	        fixed_volume
	        volume 2
	        N2(g)      0.78
	END
------------------
End of simulation.
------------------

------------------------------------
Reading input data for simulation 7.
------------------------------------

	KINETICS 1
	        K-feldspar
	                m0 2
	                m  1
	                parms 1.36e4  0.1
	                tol 1e-12
	        Pyrite  
	                tol    1e-6
	                m0     2
	                m      1
	                parms -5.0     0.1     .5      -0.11 
	KINETICS 2
	        K-feldspar
	                m0 4
	                m  2
	                parms 1.36e4  0.1
	                tol 1e-12
	END     
------------------
End of simulation.
------------------

------------------------------------
Reading input data for simulation 8.
------------------------------------

	SELECTED_OUTPUT
	        file linear_ic.sel
	        reset false
	        totals Na Cl Br X Y Hfo_w Surf
	        equilibrium_phases Calcite Gypsum Strontianite
	        solid_solutions Anhydrite Celestite Barite Siderite Rhodochrosite 
	        gases N2(g)
	        kinetics K-feldspar Pyrite
	END
------------------
End of simulation.
------------------

------------------------------------
Reading input data for simulation 9.
------------------------------------

List of Components:
	1	H
	2	O
	3	Al
	4	Ba
	5	Br
	6	C
	7	Ca
	8	Cl
	9	Fe
	10	K
	11	Mn
	12	N
	13	Na
	14	S
	15	Si
	16	Sr
	17	Charge
List of master species:
	1	Al
	2	Ba
	3	Br
	4	C(-4)
	5	C(4)
	6	Ca
	7	Cl
	8	Fe(2)
	9	Fe(3)
	10	K
	11	Mn(2)
	12	Mn(3)
	13	N(-3)
	14	N(0)
	15	N(3)
	16	N(5)
	17	Na
	18	S(-2)
	19	S(6)
	20	Si
	21	Sr
Time 0. Cell 1: x=              0	y=              0	z=              0
Using solution 1.
Using exchange 1
Using surface 1.
Using pure phase assemblage 1.
Using solid solution assemblage 1.
Using gas phase 1.

-----------------------------------Gas phase-----------------------------------


Total pressure:   0.7707   atmospheres
    Gas volume:   1.00e+00 liters

                                                        Moles in gas
                                            ----------------------------------
Component                log P           P     Initial       Final       Delta

N2(g)                    -0.11   7.707e-01   3.188e-02   3.150e-02   0.000e+00
O2(g)                   -38.33   4.677e-39   1.226e-05   0.000e+00   0.000e+00

-------------------------------Phase assemblage--------------------------------

                                                      Moles in assemblage
Phase                  SI log IAP  log KT      Initial       Final       Delta

Calcite                 0   -8.48   -8.48    1.000e+00   1.110e+00   1.097e-01
Chalcedony              0   -3.55   -3.55    1.000e-03   7.505e-04  -2.495e-04

--------------------------------Solid solutions--------------------------------


Solid solution                Component        Moles  Delta moles   Mole fract

CaSrBaSO4                                   7.66e-01
                              Anhydrite     6.56e-01    -3.44e-01     8.57e-01
                                 Barite     1.00e-02    -1.16e-08     1.31e-02
                              Celestite     9.99e-02    -1.13e-04     1.30e-01
SrCaCO3                                     9.88e-01
                          rhodochrosite     9.82e-02    -1.84e-03     9.93e-02
                               siderite     8.90e-01    -1.10e-01     9.01e-01

------------------------------Surface composition------------------------------

Hfo           
	  3.963e-05  Surface charge, eq
	  6.373e-03  sigma, C/m**2
	  4.001e-03  psi, V
	 -1.557e-01  -F*psi/RT
	  8.558e-01  exp(-F*psi/RT)
	  6.000e+02  specific area, m**2/g
	  6.000e+02  m**2 for   1.000e+00 g


Hfo_w         
	  1.000e+00  moles
	                                   Mole                     Log
	Species               Moles    Fraction    Molality    Molality

	Hfo_wOH           4.996e-01       0.500   4.995e-01      -0.301
	Hfo_wOH2+         1.720e-01       0.172   1.720e-01      -0.764
	Hfo_wOHSO4-2      1.253e-01       0.125   1.253e-01      -0.902
	Hfo_wOFe+         9.519e-02       0.095   9.518e-02      -1.021
	Hfo_wOCa+         3.666e-02       0.037   3.666e-02      -1.436
	Hfo_wO-           3.324e-02       0.033   3.323e-02      -1.478
	Hfo_wSO4-         2.182e-02       0.022   2.182e-02      -1.661
	Hfo_wOFeOH        1.438e-02       0.014   1.438e-02      -1.842
	Hfo_wOMn+         1.824e-03       0.002   1.824e-03      -2.739
	Hfo_wOSr+         5.567e-06           0   5.567e-06      -5.254
	Hfo_wOSrOH        2.983e-09           0   2.983e-09      -8.525
	Hfo_wOBa+         6.135e-11           0   6.134e-11     -10.212

Surf          
	  0.000e+00  Surface charge, eq
	  0.000e+00  sigma, C/m**2
	  0.000e+00  psi, V
	 -0.000e+00  -F*psi/RT
	  1.000e+00  exp(-F*psi/RT)
	  6.000e+02  specific area, m**2/g
	  6.000e+02  m**2 for   1.000e+00 g


Surf          
	  1.000e+00  moles
	                                   Mole                     Log
	Species               Moles    Fraction    Molality    Molality

	SurfOH            1.000e+00       1.000   9.999e-01           0

-----------------------------Exchange composition------------------------------

X                1.000e+00 mol

	                               Equiv-    Equivalent      Log 
	Species             Moles      alents      Fraction     Gamma

	NaX               8.133e-01   8.133e-01   8.133e-01    -0.149
	CaX2              9.309e-02   1.862e-01   1.862e-01    -0.582
	FeX2              1.477e-04   2.955e-04   2.955e-04    -0.598
	SrX2              9.858e-05   1.972e-04   1.972e-04    -0.585
	MnX2              1.127e-05   2.254e-05   2.254e-05    -0.598
	BaX2              5.402e-09   1.080e-08   1.080e-08    -0.662
	NH4X              6.129e-27   6.129e-27   6.129e-27    -0.226
Y                1.000e+00 mol

	                               Equiv-    Equivalent      Log 
	Species             Moles      alents      Fraction     Gamma

	NaY               8.137e-01   8.137e-01   8.137e-01    -0.149
	CaY2              9.317e-02   1.863e-01   1.863e-01    -0.582
	BaY2              5.406e-09   1.081e-08   1.081e-08    -0.662

-----------------------------Solution composition------------------------------

	Elements           Molality       Moles

	Ba                8.429e-10   8.430e-10
	Br                9.999e-04   1.000e-03
	C                 1.922e-03   1.922e-03
	Ca                1.147e-02   1.148e-02
	Cl                9.999e-04   1.000e-03
	Fe                8.827e-05   8.828e-05
	Mn                2.516e-06   2.516e-06
	N                 7.576e-04   7.577e-04
	Na                3.750e-01   3.750e-01
	S                 1.971e-01   1.971e-01
	Si                2.494e-04   2.495e-04
	Sr                9.268e-06   9.269e-06

----------------------------Description of solution----------------------------

                                       pH  =   7.685      Charge balance
                                       pe  =   3.514      Adjusted to redox equilibrium
                        Activity of water  =   0.991
                           Ionic strength  =   4.850e-01
                       Mass of water (kg)  =   1.000e+00
                 Total alkalinity (eq/kg)  =   1.951e-03
                       Total CO2 (mol/kg)  =   1.922e-03
                      Temperature (deg C)  =  25.000
                  Electrical balance (eq)  =  -3.963e-05
 Percent error, 100*(Cat-|An|)/(Cat+|An|)  =  -0.01
                               Iterations  =  43
                                  Total H  = 1.110292e+02
                                  Total O  = 5.630840e+01

----------------------------Distribution of species----------------------------

                                                   Log       Log         Log 
   Species                 Molality    Activity  Molality  Activity     Gamma

   OH-                    7.567e-07   4.807e-07    -6.121    -6.318    -0.197
   H+                     2.695e-08   2.063e-08    -7.569    -7.685    -0.116
   H2O                    5.551e+01   9.909e-01     1.744    -0.004         0
Ba               8.429e-10
   BaSO4                  6.266e-10   7.007e-10    -9.203    -9.154     0.049
   Ba+2                   2.155e-10   4.693e-11    -9.667   -10.329    -0.662
   BaHCO3+                7.142e-13   5.234e-13   -12.146   -12.281    -0.135
   BaCO3                  5.734e-14   6.411e-14   -13.242   -13.193     0.049
   BaOH+                  1.042e-16   7.636e-17   -15.982   -16.117    -0.135
Br               9.999e-04
   Br-                    9.999e-04   6.160e-04    -3.000    -3.210    -0.210
C(-4)            0.000e+00
   CH4                    0.000e+00   0.000e+00   -69.510   -69.461     0.049
C(4)             1.922e-03
   HCO3-                  1.677e-03   1.164e-03    -2.775    -2.934    -0.159
   NaHCO3                 1.360e-04   1.521e-04    -3.866    -3.818     0.049
   CO2                    4.872e-05   5.448e-05    -4.312    -4.264     0.049
   CaHCO3+                2.680e-05   1.860e-05    -4.572    -4.731    -0.159
   NaCO3-                 1.562e-05   1.145e-05    -4.806    -4.941    -0.135
   CO3-2                  1.141e-05   2.644e-06    -4.943    -5.578    -0.635
   CaCO3                  4.977e-06   5.565e-06    -5.303    -5.255     0.049
   FeHCO3+                6.966e-07   5.105e-07    -6.157    -6.292    -0.135
   FeCO3                  2.489e-07   2.783e-07    -6.604    -6.555     0.049
   MnCO3                  5.230e-08   5.848e-08    -7.281    -7.233     0.049
   MnHCO3+                3.940e-08   2.887e-08    -7.405    -7.540    -0.135
   SrHCO3+                2.620e-08   1.818e-08    -7.582    -7.740    -0.159
   SrCO3                  1.542e-09   1.725e-09    -8.812    -8.763     0.049
   BaHCO3+                7.142e-13   5.234e-13   -12.146   -12.281    -0.135
   BaCO3                  5.734e-14   6.411e-14   -13.242   -13.193     0.049
Ca               1.147e-02
   CaSO4                  6.659e-03   7.446e-03    -2.177    -2.128     0.049
   Ca+2                   4.784e-03   1.253e-03    -2.320    -2.902    -0.582
   CaHCO3+                2.680e-05   1.860e-05    -4.572    -4.731    -0.159
   CaCO3                  4.977e-06   5.565e-06    -5.303    -5.255     0.049
   CaOH+                  1.362e-08   9.983e-09    -7.866    -8.001    -0.135
   CaHSO4+                1.228e-09   9.001e-10    -8.911    -9.046    -0.135
Cl               9.999e-04
   Cl-                    9.999e-04   6.459e-04    -3.000    -3.190    -0.190
   FeCl+                  5.338e-09   3.912e-09    -8.273    -8.408    -0.135
   MnCl+                  9.997e-10   7.326e-10    -9.000    -9.135    -0.135
   MnCl2                  1.847e-13   2.066e-13   -12.733   -12.685     0.049
   FeCl+2                 9.255e-17   2.670e-17   -16.034   -16.574    -0.540
   MnCl3-                 5.015e-17   3.675e-17   -16.300   -16.435    -0.135
   FeCl2+                 1.051e-19   7.703e-20   -18.978   -19.113    -0.135
   FeCl3                  4.450e-24   4.976e-24   -23.352   -23.303     0.049
Fe(2)            3.922e-05
   FeSO4                  2.079e-05   2.324e-05    -4.682    -4.634     0.049
   Fe+2                   1.739e-05   4.388e-06    -4.760    -5.358    -0.598
   FeHCO3+                6.966e-07   5.105e-07    -6.157    -6.292    -0.135
   FeCO3                  2.489e-07   2.783e-07    -6.604    -6.555     0.049
   FeOH+                  9.092e-08   6.663e-08    -7.041    -7.176    -0.135
   FeCl+                  5.338e-09   3.912e-09    -8.273    -8.408    -0.135
   FeHSO4+                4.302e-12   3.153e-12   -11.366   -11.501    -0.135
   Fe(HS)2                0.000e+00   0.000e+00  -126.739  -126.690     0.049
   Fe(HS)3-               0.000e+00   0.000e+00  -189.660  -189.795    -0.135
Fe(3)            4.904e-05
   Fe(OH)3                3.734e-05   4.175e-05    -4.428    -4.379     0.049
   Fe(OH)2+               9.208e-06   6.748e-06    -5.036    -5.171    -0.135
   Fe(OH)4-               2.495e-06   1.828e-06    -5.603    -5.738    -0.135
   FeOH+2                 1.471e-09   4.244e-10    -8.832    -9.372    -0.540
   FeSO4+                 6.101e-13   4.471e-13   -12.215   -12.350    -0.135
   Fe(SO4)2-              3.976e-13   2.914e-13   -12.401   -12.536    -0.135
   Fe+3                   1.515e-14   1.369e-15   -13.820   -14.864    -1.044
   Fe2(OH)2+4             7.000e-16   4.847e-18   -15.155   -17.315    -2.160
   FeCl+2                 9.255e-17   2.670e-17   -16.034   -16.574    -0.540
   Fe3(OH)4+5             1.618e-17   6.834e-21   -16.791   -20.165    -3.374
   FeCl2+                 1.051e-19   7.703e-20   -18.978   -19.113    -0.135
   FeHSO4+2               8.564e-20   2.470e-20   -19.067   -19.607    -0.540
   FeCl3                  4.450e-24   4.976e-24   -23.352   -23.303     0.049
H(0)             5.053e-26
   H2                     2.527e-26   2.825e-26   -25.597   -25.549     0.049
Mn(2)            2.516e-06
   MnSO4                  1.319e-06   1.475e-06    -5.880    -5.831     0.049
   Mn+2                   1.104e-06   2.784e-07    -5.957    -6.555    -0.598
   MnCO3                  5.230e-08   5.848e-08    -7.281    -7.233     0.049
   MnHCO3+                3.940e-08   2.887e-08    -7.405    -7.540    -0.135
   MnCl+                  9.997e-10   7.326e-10    -9.000    -9.135    -0.135
   MnOH+                  4.689e-10   3.437e-10    -9.329    -9.464    -0.135
   MnCl2                  1.847e-13   2.066e-13   -12.733   -12.685     0.049
   MnCl3-                 5.015e-17   3.675e-17   -16.300   -16.435    -0.135
   Mn(NO3)2               0.000e+00   0.000e+00   -89.115   -89.067     0.049
Mn(3)            4.608e-28
   Mn+3                   4.608e-28   2.810e-29   -27.336   -28.551    -1.215
N(-3)            8.220e-28
   NH4+                   6.199e-28   3.687e-28   -27.208   -27.433    -0.226
   NH4SO4-                1.931e-28   1.415e-28   -27.714   -27.849    -0.135
   NH3                    9.106e-30   1.018e-29   -29.041   -28.992     0.049
N(0)             7.576e-04
   N2                     3.788e-04   4.235e-04    -3.422    -3.373     0.049
N(3)             6.757e-36
   NO2-                   6.757e-36   4.163e-36   -35.170   -35.381    -0.210
N(5)             0.000e+00
   NO3-                   0.000e+00   0.000e+00   -41.345   -41.556    -0.210
   Mn(NO3)2               0.000e+00   0.000e+00   -89.115   -89.067     0.049
Na               3.750e-01
   Na+                    3.275e-01   2.324e-01    -0.485    -0.634    -0.149
   NaSO4-                 4.736e-02   3.470e-02    -1.325    -1.460    -0.135
   NaHCO3                 1.360e-04   1.521e-04    -3.866    -3.818     0.049
   NaCO3-                 1.562e-05   1.145e-05    -4.806    -4.941    -0.135
   NaOH                   6.595e-08   7.375e-08    -7.181    -7.132     0.049
O(0)             0.000e+00
   O2                     0.000e+00   0.000e+00   -41.339   -41.290     0.049
S(-2)            0.000e+00
   HS-                    0.000e+00   0.000e+00   -64.944   -65.141    -0.197
   H2S                    0.000e+00   0.000e+00   -65.934   -65.885     0.049
   S-2                    0.000e+00   0.000e+00   -69.712   -70.374    -0.662
   Fe(HS)2                0.000e+00   0.000e+00  -126.739  -126.690     0.049
   Fe(HS)3-               0.000e+00   0.000e+00  -189.660  -189.795    -0.135
S(6)             1.971e-01
   SO4-2                  1.430e-01   2.979e-02    -0.845    -1.526    -0.681
   NaSO4-                 4.736e-02   3.470e-02    -1.325    -1.460    -0.135
   CaSO4                  6.659e-03   7.446e-03    -2.177    -2.128     0.049
   FeSO4                  2.079e-05   2.324e-05    -4.682    -4.634     0.049
   SrSO4                  5.307e-06   5.934e-06    -5.275    -5.227     0.049
   MnSO4                  1.319e-06   1.475e-06    -5.880    -5.831     0.049
   HSO4-                  8.155e-08   5.977e-08    -7.089    -7.224    -0.135
   CaHSO4+                1.228e-09   9.001e-10    -8.911    -9.046    -0.135
   BaSO4                  6.266e-10   7.007e-10    -9.203    -9.154     0.049
   FeHSO4+                4.302e-12   3.153e-12   -11.366   -11.501    -0.135
   FeSO4+                 6.101e-13   4.471e-13   -12.215   -12.350    -0.135
   Fe(SO4)2-              3.976e-13   2.914e-13   -12.401   -12.536    -0.135
   FeHSO4+2               8.564e-20   2.470e-20   -19.067   -19.607    -0.540
   NH4SO4-                1.931e-28   1.415e-28   -27.714   -27.849    -0.135
Si               2.494e-04
   H4SiO4                 2.467e-04   2.759e-04    -3.608    -3.559     0.049
   H3SiO4-                2.690e-06   1.971e-06    -5.570    -5.705    -0.135
   H2SiO4-2               2.253e-11   6.499e-12   -10.647   -11.187    -0.540
Sr               9.268e-06
   SrSO4                  5.307e-06   5.934e-06    -5.275    -5.227     0.049
   Sr+2                   3.933e-06   1.022e-06    -5.405    -5.991    -0.585
   SrHCO3+                2.620e-08   1.818e-08    -7.582    -7.740    -0.159
   SrCO3                  1.542e-09   1.725e-09    -8.812    -8.763     0.049
   SrOH+                  3.683e-12   2.516e-12   -11.434   -11.599    -0.165

------------------------------Saturation indices-------------------------------

	Phase               SI log IAP  log KT

	Anhydrite        -0.07   -4.43   -4.36  CaSO4
	Aragonite        -0.14   -8.48   -8.34  CaCO3
	Barite           -1.88  -11.85   -9.97  BaSO4
	Calcite              0   -8.48   -8.48  CaCO3
	Celestite        -0.88   -7.52   -6.63  SrSO4
	CH4(g)          -66.60  -69.46   -2.86  CH4
	Chalcedony           0   -3.55   -3.55  SiO2
	CO2(g)           -2.80   -4.26   -1.47  CO2
	Fe(OH)3(a)        3.29    8.18    4.89  Fe(OH)3
	FeS(ppt)        -58.90  -62.81   -3.92  FeS
	Goethite          9.18    8.18   -1.00  FeOOH
	Gypsum            0.14   -4.44   -4.58  CaSO4:2H2O
	H2(g)           -22.40  -25.55   -3.15  H2
	H2O(g)           -1.51       0    1.51  H2O
	H2S(g)          -64.89  -65.89   -1.00  H2S
	Halite           -5.41   -3.82    1.58  NaCl
	Hausmannite     -12.20   48.83   61.03  Mn3O4
	Hematite         20.38   16.37   -4.01  Fe2O3
	Mackinawite     -58.17  -62.81   -4.65  FeS
	Manganite        -5.33   20.01   25.34  MnOOH
	Melanterite      -4.70   -6.91   -2.21  FeSO4:7H2O
	N2(g)            -0.11   -3.37   -3.26  N2
	NH3(g)          -30.76  -28.99    1.77  NH3
	O2(g)           -38.33  -41.29   -2.96  O2
	Pyrite          -94.76 -113.24  -18.48  FeS2
	Pyrochroite      -6.39    8.81   15.20  Mn(OH)2
	Pyrolusite      -10.17   31.21   41.38  MnO2
	Quartz            0.43   -3.55   -3.98  SiO2
	Rhodochrosite    -1.00  -12.13  -11.13  MnCO3
	Siderite         -0.05  -10.94  -10.89  FeCO3
	SiO2(a)          -0.84   -3.55   -2.71  SiO2
	Strontianite     -2.30  -11.57   -9.27  SrCO3
	Sulfur          -48.37  -43.49    4.88  S
	Witherite        -7.34  -15.91   -8.56  BaCO3

Time 0. Cell 3: x=              2	y=              0	z=              0
Using solution 3.
Using exchange 3
Using surface 3.
Using pure phase assemblage 3.
Using solid solution assemblage 3.
Using gas phase 3.

-----------------------------------Gas phase-----------------------------------


Total pressure:   0.7723   atmospheres
    Gas volume:   1.20e+00 liters

                                                        Moles in gas
                                            ----------------------------------
Component                log P           P     Initial       Final       Delta

N2(g)                    -0.11   7.723e-01   3.826e-02   3.788e-02   0.000e+00
O2(g)                   -38.71   1.936e-39   9.809e-06   0.000e+00   0.000e+00

-------------------------------Phase assemblage--------------------------------

                                                      Moles in assemblage
Phase                  SI log IAP  log KT      Initial       Final       Delta

Calcite                 0   -8.48   -8.48    1.200e+00   1.332e+00   1.319e-01
Chalcedony              0   -3.55   -3.55    8.000e-04   5.506e-04  -2.494e-04

--------------------------------Solid solutions--------------------------------


Solid solution                Component        Moles  Delta moles   Mole fract

CaSrBaSO4                                   9.58e-01
                              Anhydrite     8.26e-01    -3.74e-01     8.62e-01
                                 Barite     1.20e-02    -1.11e-08     1.25e-02
                              Celestite     1.20e-01    -1.28e-04     1.25e-01
SrCaCO3                                     7.46e-01
                          rhodochrosite     7.77e-02    -2.32e-03     1.04e-01
                               siderite     6.69e-01    -1.31e-01     8.96e-01

------------------------------Surface composition------------------------------

Hfo           
	  4.764e-05  Surface charge, eq
	  6.385e-03  sigma, C/m**2
	  4.005e-03  psi, V
	 -1.559e-01  -F*psi/RT
	  8.557e-01  exp(-F*psi/RT)
	  6.000e+02  specific area, m**2/g
	  7.200e+02  m**2 for   1.200e+00 g


Hfo_w         
	  1.200e+00  moles
	                                   Mole                     Log
	Species               Moles    Fraction    Molality    Molality

	Hfo_wOH           5.992e-01       0.499   5.991e-01      -0.223
	Hfo_wOH2+         2.066e-01       0.172   2.066e-01      -0.685
	Hfo_wOHSO4-2      1.505e-01       0.125   1.505e-01      -0.823
	Hfo_wOFe+         1.140e-01       0.095   1.140e-01      -0.943
	Hfo_wOCa+         4.415e-02       0.037   4.414e-02      -1.355
	Hfo_wO-           3.981e-02       0.033   3.980e-02      -1.400
	Hfo_wSO4-         2.624e-02       0.022   2.624e-02      -1.581
	Hfo_wOFeOH        1.720e-02       0.014   1.720e-02      -1.765
	Hfo_wOMn+         2.303e-03       0.002   2.302e-03      -2.638
	Hfo_wOSr+         6.390e-06           0   6.389e-06      -5.195
	Hfo_wOSrOH        3.420e-09           0   3.419e-09      -8.466
	Hfo_wOBa+         7.041e-11           0   7.040e-11     -10.152

Surf          
	  0.000e+00  Surface charge, eq
	  0.000e+00  sigma, C/m**2
	  0.000e+00  psi, V
	 -0.000e+00  -F*psi/RT
	  1.000e+00  exp(-F*psi/RT)
	  6.000e+02  specific area, m**2/g
	  4.800e+02  m**2 for   8.000e-01 g


Surf          
	  8.000e-01  moles
	                                   Mole                     Log
	Species               Moles    Fraction    Molality    Molality

	SurfOH            8.000e-01       1.000   7.999e-01      -0.097

-----------------------------Exchange composition------------------------------

X                1.200e+00 mol

	                               Equiv-    Equivalent      Log 
	Species             Moles      alents      Fraction     Gamma

	NaX               9.756e-01   9.756e-01   8.130e-01    -0.149
	CaX2              1.119e-01   2.238e-01   1.865e-01    -0.582
	FeX2              1.767e-04   3.534e-04   2.945e-04    -0.598
	SrX2              1.130e-04   2.259e-04   1.883e-04    -0.586
	MnX2              1.420e-05   2.841e-05   2.367e-05    -0.598
	BaX2              6.191e-09   1.238e-08   1.032e-08    -0.662
	NH4X              1.426e-26   1.426e-26   1.188e-26    -0.226
Y                8.000e-01 mol

	                               Equiv-    Equivalent      Log 
	Species             Moles      alents      Fraction     Gamma

	NaY               6.507e-01   6.507e-01   8.133e-01    -0.149
	CaY2              7.467e-02   1.493e-01   1.867e-01    -0.582
	BaY2              4.131e-09   8.261e-09   1.033e-08    -0.662

-----------------------------Solution composition------------------------------

	Elements           Molality       Moles

	Ba                8.085e-10   8.087e-10
	Br                7.999e-04   8.000e-04
	C                 1.914e-03   1.914e-03
	Ca                1.155e-02   1.155e-02
	Cl                1.200e-03   1.200e-03
	Fe                7.849e-05   7.851e-05
	Mn                2.654e-06   2.654e-06
	N                 7.589e-04   7.590e-04
	Na                3.757e-01   3.757e-01
	S                 1.975e-01   1.975e-01
	Si                2.494e-04   2.494e-04
	Sr                8.889e-06   8.890e-06

----------------------------Description of solution----------------------------

                                       pH  =   7.685      Charge balance
                                       pe  =   3.419      Adjusted to redox equilibrium
                        Activity of water  =   0.991
                           Ionic strength  =   4.859e-01
                       Mass of water (kg)  =   1.000e+00
                 Total alkalinity (eq/kg)  =   1.935e-03
                       Total CO2 (mol/kg)  =   1.914e-03
                      Temperature (deg C)  =  25.000
                  Electrical balance (eq)  =  -4.764e-05
 Percent error, 100*(Cat-|An|)/(Cat+|An|)  =  -0.01
                               Iterations  =  29
                                  Total H  = 1.110324e+02
                                  Total O  = 5.631172e+01

----------------------------Distribution of species----------------------------

                                                   Log       Log         Log 
   Species                 Molality    Activity  Molality  Activity     Gamma

   OH-                    7.557e-07   4.800e-07    -6.122    -6.319    -0.197
   H+                     2.700e-08   2.067e-08    -7.569    -7.685    -0.116
   H2O                    5.551e+01   9.909e-01     1.744    -0.004         0
Ba               8.085e-10
   BaSO4                  6.011e-10   6.723e-10    -9.221    -9.172     0.049
   Ba+2                   2.067e-10   4.498e-11    -9.685   -10.347    -0.662
   BaHCO3+                6.816e-13   4.996e-13   -12.166   -12.301    -0.135
   BaCO3                  5.463e-14   6.110e-14   -13.263   -13.214     0.049
   BaOH+                  9.971e-17   7.308e-17   -16.001   -16.136    -0.135
Br               7.999e-04
   Br-                    7.999e-04   4.926e-04    -3.097    -3.307    -0.211
C(-4)            0.000e+00
   CH4                    0.000e+00   0.000e+00   -68.745   -68.696     0.049
C(4)             1.914e-03
   HCO3-                  1.670e-03   1.159e-03    -2.777    -2.936    -0.159
   NaHCO3                 1.356e-04   1.517e-04    -3.868    -3.819     0.049
   CO2                    4.858e-05   5.433e-05    -4.314    -4.265     0.049
   CaHCO3+                2.685e-05   1.862e-05    -4.571    -4.730    -0.159
   NaCO3-                 1.555e-05   1.140e-05    -4.808    -4.943    -0.135
   CO3-2                  1.135e-05   2.629e-06    -4.945    -5.580    -0.635
   CaCO3                  4.976e-06   5.565e-06    -5.303    -5.255     0.049
   FeHCO3+                6.939e-07   5.086e-07    -6.159    -6.294    -0.135
   FeCO3                  2.476e-07   2.769e-07    -6.606    -6.558     0.049
   MnCO3                  5.481e-08   6.130e-08    -7.261    -7.213     0.049
   MnHCO3+                4.135e-08   3.031e-08    -7.383    -7.518    -0.135
   SrHCO3+                2.502e-08   1.736e-08    -7.602    -7.761    -0.159
   SrCO3                  1.470e-09   1.644e-09    -8.833    -8.784     0.049
   BaHCO3+                6.816e-13   4.996e-13   -12.166   -12.301    -0.135
   BaCO3                  5.463e-14   6.110e-14   -13.263   -13.214     0.049
Ca               1.155e-02
   CaSO4                  6.703e-03   7.496e-03    -2.174    -2.125     0.049
   Ca+2                   4.813e-03   1.260e-03    -2.318    -2.900    -0.582
   CaHCO3+                2.685e-05   1.862e-05    -4.571    -4.730    -0.159
   CaCO3                  4.976e-06   5.565e-06    -5.303    -5.255     0.049
   CaOH+                  1.368e-08   1.003e-08    -7.864    -7.999    -0.135
   CaHSO4+                1.238e-09   9.076e-10    -8.907    -9.042    -0.135
Cl               1.200e-03
   Cl-                    1.200e-03   7.749e-04    -2.921    -3.111    -0.190
   FeCl+                  6.407e-09   4.695e-09    -8.193    -8.328    -0.135
   MnCl+                  1.264e-09   9.265e-10    -8.898    -9.033    -0.135
   MnCl2                  2.803e-13   3.134e-13   -12.552   -12.504     0.049
   MnCl3-                 9.128e-17   6.690e-17   -16.040   -16.175    -0.135
   FeCl+2                 8.922e-17   2.574e-17   -16.050   -16.589    -0.540
   FeCl2+                 1.216e-19   8.911e-20   -18.915   -19.050    -0.135
   FeCl3                  6.174e-24   6.905e-24   -23.209   -23.161     0.049
Fe(2)            3.926e-05
   FeSO4                  2.081e-05   2.328e-05    -4.682    -4.633     0.049
   Fe+2                   1.741e-05   4.389e-06    -4.759    -5.358    -0.598
   FeHCO3+                6.939e-07   5.086e-07    -6.159    -6.294    -0.135
   FeCO3                  2.476e-07   2.769e-07    -6.606    -6.558     0.049
   FeOH+                  9.081e-08   6.655e-08    -7.042    -7.177    -0.135
   FeCl+                  6.407e-09   4.695e-09    -8.193    -8.328    -0.135
   FeHSO4+                4.314e-12   3.162e-12   -11.365   -11.500    -0.135
   Fe(HS)2                0.000e+00   0.000e+00  -125.204  -125.156     0.049
   Fe(HS)3-               0.000e+00   0.000e+00  -187.358  -187.493    -0.135
Fe(3)            3.923e-05
   Fe(OH)3                2.986e-05   3.340e-05    -4.525    -4.476     0.049
   Fe(OH)2+               7.377e-06   5.407e-06    -5.132    -5.267    -0.135
   Fe(OH)4-               1.993e-06   1.460e-06    -5.701    -5.836    -0.135
   FeOH+2                 1.180e-09   3.405e-10    -8.928    -9.468    -0.540
   FeSO4+                 4.908e-13   3.597e-13   -12.309   -12.444    -0.135
   Fe(SO4)2-              3.202e-13   2.347e-13   -12.495   -12.630    -0.135
   Fe+3                   1.218e-14   1.100e-15   -13.914   -14.959    -1.044
   Fe2(OH)2+4             4.503e-16   3.121e-18   -15.346   -17.506    -2.159
   FeCl+2                 8.922e-17   2.574e-17   -16.050   -16.589    -0.540
   Fe3(OH)4+5             8.337e-18   3.525e-21   -17.079   -20.453    -3.374
   FeCl2+                 1.216e-19   8.911e-20   -18.915   -19.050    -0.135
   FeHSO4+2               6.898e-20   1.990e-20   -19.161   -19.701    -0.540
   FeCl3                  6.174e-24   6.905e-24   -23.209   -23.161     0.049
H(0)             7.852e-26
   H2                     3.926e-26   4.391e-26   -25.406   -25.357     0.049
Mn(2)            2.654e-06
   MnSO4                  1.392e-06   1.556e-06    -5.856    -5.808     0.049
   Mn+2                   1.164e-06   2.935e-07    -5.934    -6.532    -0.598
   MnCO3                  5.481e-08   6.130e-08    -7.261    -7.213     0.049
   MnHCO3+                4.135e-08   3.031e-08    -7.383    -7.518    -0.135
   MnCl+                  1.264e-09   9.265e-10    -8.898    -9.033    -0.135
   MnOH+                  4.935e-10   3.617e-10    -9.307    -9.442    -0.135
   MnCl2                  2.803e-13   3.134e-13   -12.552   -12.504     0.049
   MnCl3-                 9.128e-17   6.690e-17   -16.040   -16.175    -0.135
   Mn(NO3)2               0.000e+00   0.000e+00   -90.050   -90.002     0.049
Mn(3)            3.901e-28
   Mn+3                   3.901e-28   2.380e-29   -27.409   -28.623    -1.215
N(-3)            1.598e-27
   NH4+                   1.205e-27   7.161e-28   -26.919   -27.145    -0.226
   NH4SO4-                3.754e-28   2.751e-28   -27.426   -27.560    -0.135
   NH3                    1.766e-29   1.975e-29   -28.753   -28.704     0.049
N(0)             7.589e-04
   N2                     3.795e-04   4.244e-04    -3.421    -3.372     0.049
N(3)             3.486e-36
   NO2-                   3.486e-36   2.147e-36   -35.458   -35.668    -0.211
N(5)             0.000e+00
   NO3-                   0.000e+00   0.000e+00   -41.824   -42.035    -0.211
   Mn(NO3)2               0.000e+00   0.000e+00   -90.050   -90.002     0.049
Na               3.757e-01
   Na+                    3.281e-01   2.328e-01    -0.484    -0.633    -0.149
   NaSO4-                 4.748e-02   3.480e-02    -1.323    -1.458    -0.135
   NaHCO3                 1.356e-04   1.517e-04    -3.868    -3.819     0.049
   NaCO3-                 1.555e-05   1.140e-05    -4.808    -4.943    -0.135
   NaOH                   6.595e-08   7.376e-08    -7.181    -7.132     0.049
O(0)             0.000e+00
   O2                     0.000e+00   0.000e+00   -41.722   -41.673     0.049
S(-2)            0.000e+00
   HS-                    0.000e+00   0.000e+00   -64.177   -64.374    -0.197
   H2S                    0.000e+00   0.000e+00   -65.166   -65.117     0.049
   S-2                    0.000e+00   0.000e+00   -68.945   -69.607    -0.662
   Fe(HS)2                0.000e+00   0.000e+00  -125.204  -125.156     0.049
   Fe(HS)3-               0.000e+00   0.000e+00  -187.358  -187.493    -0.135
S(6)             1.975e-01
   SO4-2                  1.433e-01   2.982e-02    -0.844    -1.525    -0.682
   NaSO4-                 4.748e-02   3.480e-02    -1.323    -1.458    -0.135
   CaSO4                  6.703e-03   7.496e-03    -2.174    -2.125     0.049
   FeSO4                  2.081e-05   2.328e-05    -4.682    -4.633     0.049
   SrSO4                  5.091e-06   5.694e-06    -5.293    -5.245     0.049
   MnSO4                  1.392e-06   1.556e-06    -5.856    -5.808     0.049
   HSO4-                  8.176e-08   5.992e-08    -7.087    -7.222    -0.135
   CaHSO4+                1.238e-09   9.076e-10    -8.907    -9.042    -0.135
   BaSO4                  6.011e-10   6.723e-10    -9.221    -9.172     0.049
   FeHSO4+                4.314e-12   3.162e-12   -11.365   -11.500    -0.135
   FeSO4+                 4.908e-13   3.597e-13   -12.309   -12.444    -0.135
   Fe(SO4)2-              3.202e-13   2.347e-13   -12.495   -12.630    -0.135
   FeHSO4+2               6.898e-20   1.990e-20   -19.161   -19.701    -0.540
   NH4SO4-                3.754e-28   2.751e-28   -27.426   -27.560    -0.135
Si               2.494e-04
   H4SiO4                 2.467e-04   2.759e-04    -3.608    -3.559     0.049
   H3SiO4-                2.686e-06   1.968e-06    -5.571    -5.706    -0.135
   H2SiO4-2               2.246e-11   6.479e-12   -10.649   -11.188    -0.540
Sr               8.889e-06
   SrSO4                  5.091e-06   5.694e-06    -5.293    -5.245     0.049
   Sr+2                   3.771e-06   9.792e-07    -5.424    -6.009    -0.586
   SrHCO3+                2.502e-08   1.736e-08    -7.602    -7.761    -0.159
   SrCO3                  1.470e-09   1.644e-09    -8.833    -8.784     0.049
   SrOH+                  3.526e-12   2.408e-12   -11.453   -11.618    -0.166

------------------------------Saturation indices-------------------------------

	Phase               SI log IAP  log KT

	Anhydrite        -0.06   -4.43   -4.36  CaSO4
	Aragonite        -0.14   -8.48   -8.34  CaCO3
	Barite           -1.90  -11.87   -9.97  BaSO4
	Calcite              0   -8.48   -8.48  CaCO3
	Celestite        -0.90   -7.53   -6.63  SrSO4
	CH4(g)          -65.84  -68.70   -2.86  CH4
	Chalcedony           0   -3.55   -3.55  SiO2
	CO2(g)           -2.80   -4.26   -1.47  CO2
	Fe(OH)3(a)        3.19    8.08    4.89  Fe(OH)3
	FeS(ppt)        -58.13  -62.05   -3.92  FeS
	Goethite          9.09    8.09   -1.00  FeOOH
	Gypsum            0.15   -4.43   -4.58  CaSO4:2H2O
	H2(g)           -22.21  -25.36   -3.15  H2
	H2O(g)           -1.51       0    1.51  H2O
	H2S(g)          -64.12  -65.12   -1.00  H2S
	Halite           -5.33   -3.74    1.58  NaCl
	Hausmannite     -12.33   48.70   61.03  Mn3O4
	Hematite         20.19   16.18   -4.01  Fe2O3
	Mackinawite     -57.40  -62.05   -4.65  FeS
	Manganite        -5.41   19.93   25.34  MnOOH
	Melanterite      -4.70   -6.91   -2.21  FeSO4:7H2O
	N2(g)            -0.11   -3.37   -3.26  N2
	NH3(g)          -30.47  -28.70    1.77  NH3
	O2(g)           -38.71  -41.67   -2.96  O2
	Pyrite          -93.42 -111.90  -18.48  FeS2
	Pyrochroite      -6.37    8.83   15.20  Mn(OH)2
	Pyrolusite      -10.34   31.04   41.38  MnO2
	Quartz            0.43   -3.55   -3.98  SiO2
	Rhodochrosite    -0.98  -12.11  -11.13  MnCO3
	Siderite         -0.05  -10.94  -10.89  FeCO3
	SiO2(a)          -0.84   -3.55   -2.71  SiO2
	Strontianite     -2.32  -11.59   -9.27  SrCO3
	Sulfur          -47.79  -42.91    4.88  S
	Witherite        -7.37  -15.93   -8.56  BaCO3

Time 0. Cell 5: x=              4	y=              0	z=              0
Using solution 5.
Using exchange 5
Using surface 5.
Using pure phase assemblage 5.
Using solid solution assemblage 5.
Using gas phase 5.

-----------------------------------Gas phase-----------------------------------


Total pressure:   0.7734   atmospheres
    Gas volume:   1.40e+00 liters

                                                        Moles in gas
                                            ----------------------------------
Component                log P           P     Initial       Final       Delta

N2(g)                    -0.11   7.734e-01   4.463e-02   4.425e-02   0.000e+00
O2(g)                   -39.20   6.252e-40   7.357e-06   0.000e+00   0.000e+00

-------------------------------Phase assemblage--------------------------------

                                                      Moles in assemblage
Phase                  SI log IAP  log KT      Initial       Final       Delta

Calcite                 0   -8.48   -8.48    1.400e+00   1.554e+00   1.537e-01
Chalcedony              0   -3.55   -3.55    6.000e-04   3.506e-04  -2.494e-04

--------------------------------Solid solutions--------------------------------


Solid solution                Component        Moles  Delta moles   Mole fract

CaSrBaSO4                                   1.15e+00
                              Anhydrite     9.96e-01    -4.04e-01     8.66e-01
                                 Barite     1.40e-02    -1.08e-08     1.22e-02
                              Celestite     1.40e-01    -1.44e-04     1.22e-01
SrCaCO3                                     5.04e-01
                          rhodochrosite     5.70e-02    -2.95e-03     1.13e-01
                               siderite     4.47e-01    -1.53e-01     8.87e-01

------------------------------Surface composition------------------------------

Hfo           
	  5.541e-05  Surface charge, eq
	  6.365e-03  sigma, C/m**2
	  3.989e-03  psi, V
	 -1.553e-01  -F*psi/RT
	  8.562e-01  exp(-F*psi/RT)
	  6.000e+02  specific area, m**2/g
	  8.400e+02  m**2 for   1.400e+00 g


Hfo_w         
	  1.400e+00  moles
	                                   Mole                     Log
	Species               Moles    Fraction    Molality    Molality

	Hfo_wOH           6.992e-01       0.499   6.991e-01      -0.155
	Hfo_wOH2+         2.411e-01       0.172   2.410e-01      -0.618
	Hfo_wOHSO4-2      1.755e-01       0.125   1.755e-01      -0.756
	Hfo_wOFe+         1.324e-01       0.095   1.324e-01      -0.878
	Hfo_wOCa+         5.178e-02       0.037   5.177e-02      -1.286
	Hfo_wO-           4.646e-02       0.033   4.645e-02      -1.333
	Hfo_wSO4-         3.061e-02       0.022   3.060e-02      -1.514
	Hfo_wOFeOH        1.997e-02       0.014   1.997e-02      -1.700
	Hfo_wOMn+         2.934e-03       0.002   2.934e-03      -2.533
	Hfo_wOSr+         7.249e-06           0   7.248e-06      -5.140
	Hfo_wOSrOH        3.880e-09           0   3.879e-09      -8.411
	Hfo_wOBa+         7.988e-11           0   7.986e-11     -10.098

Surf          
	  0.000e+00  Surface charge, eq
	  0.000e+00  sigma, C/m**2
	  0.000e+00  psi, V
	 -0.000e+00  -F*psi/RT
	  1.000e+00  exp(-F*psi/RT)
	  6.000e+02  specific area, m**2/g
	  3.600e+02  m**2 for   6.000e-01 g


Surf          
	  6.000e-01  moles
	                                   Mole                     Log
	Species               Moles    Fraction    Molality    Molality

	SurfOH            6.000e-01       1.000   5.999e-01      -0.222

-----------------------------Exchange composition------------------------------

X                1.400e+00 mol

	                               Equiv-    Equivalent      Log 
	Species             Moles      alents      Fraction     Gamma

	NaX               1.138e+00   1.138e+00   8.128e-01    -0.149
	CaX2              1.307e-01   2.614e-01   1.867e-01    -0.582
	FeX2              2.043e-04   4.087e-04   2.919e-04    -0.599
	SrX2              1.276e-04   2.552e-04   1.823e-04    -0.586
	MnX2              1.803e-05   3.606e-05   2.575e-05    -0.599
	BaX2              6.995e-09   1.399e-08   9.993e-09    -0.662
	NH4X              3.879e-26   3.879e-26   2.771e-26    -0.226
Y                6.000e-01 mol

	                               Equiv-    Equivalent      Log 
	Species             Moles      alents      Fraction     Gamma

	NaY               4.879e-01   4.879e-01   8.131e-01    -0.149
	CaY2              5.606e-02   1.121e-01   1.869e-01    -0.582
	BaY2              3.000e-09   6.001e-09   1.000e-08    -0.662

-----------------------------Solution composition------------------------------

	Elements           Molality       Moles

	Ba                7.854e-10   7.856e-10
	Br                5.999e-04   6.000e-04
	C                 1.906e-03   1.906e-03
	Ca                1.160e-02   1.160e-02
	Cl                1.400e-03   1.400e-03
	Fe                6.846e-05   6.847e-05
	Mn                2.895e-06   2.896e-06
	N                 7.599e-04   7.600e-04
	Na                3.762e-01   3.762e-01
	S                 1.978e-01   1.978e-01
	Si                2.493e-04   2.494e-04
	Sr                8.634e-06   8.636e-06

----------------------------Description of solution----------------------------

                                       pH  =   7.685      Charge balance
                                       pe  =   3.296      Adjusted to redox equilibrium
                        Activity of water  =   0.991
                           Ionic strength  =   4.866e-01
                       Mass of water (kg)  =   1.000e+00
                 Total alkalinity (eq/kg)  =   1.919e-03
                       Total CO2 (mol/kg)  =   1.906e-03
                      Temperature (deg C)  =  25.000
                  Electrical balance (eq)  =  -5.541e-05
 Percent error, 100*(Cat-|An|)/(Cat+|An|)  =  -0.01
                               Iterations  =  28
                                  Total H  = 1.110356e+02
                                  Total O  = 5.631447e+01

----------------------------Distribution of species----------------------------

                                                   Log       Log         Log 
   Species                 Molality    Activity  Molality  Activity     Gamma

   OH-                    7.564e-07   4.803e-07    -6.121    -6.318    -0.197
   H+                     2.698e-08   2.065e-08    -7.569    -7.685    -0.116
   H2O                    5.551e+01   9.909e-01     1.744    -0.004         0
Ba               7.854e-10
   BaSO4                  5.840e-10   6.532e-10    -9.234    -9.185     0.049
   Ba+2                   2.008e-10   4.367e-11    -9.697   -10.360    -0.662
   BaHCO3+                6.588e-13   4.828e-13   -12.181   -12.316    -0.135
   BaCO3                  5.283e-14   5.910e-14   -13.277   -13.228     0.049
   BaOH+                  9.687e-17   7.100e-17   -16.014   -16.149    -0.135
Br               5.999e-04
   Br-                    5.999e-04   3.694e-04    -3.222    -3.433    -0.211
C(-4)            0.000e+00
   CH4                    0.000e+00   0.000e+00   -67.766   -67.717     0.049
C(4)             1.906e-03
   HCO3-                  1.663e-03   1.153e-03    -2.779    -2.938    -0.159
   NaHCO3                 1.352e-04   1.512e-04    -3.869    -3.820     0.049
   CO2                    4.832e-05   5.405e-05    -4.316    -4.267     0.049
   CaHCO3+                2.683e-05   1.861e-05    -4.571    -4.730    -0.159
   NaCO3-                 1.551e-05   1.137e-05    -4.809    -4.944    -0.135
   CO3-2                  1.131e-05   2.619e-06    -4.946    -5.582    -0.635
   CaCO3                  4.975e-06   5.565e-06    -5.303    -5.255     0.049
   FeHCO3+                6.865e-07   5.031e-07    -6.163    -6.298    -0.135
   FeCO3                  2.450e-07   2.741e-07    -6.611    -6.562     0.049
   MnCO3                  5.954e-08   6.660e-08    -7.225    -7.177     0.049
   MnHCO3+                4.489e-08   3.290e-08    -7.348    -7.483    -0.135
   SrHCO3+                2.418e-08   1.678e-08    -7.616    -7.775    -0.159
   SrCO3                  1.421e-09   1.590e-09    -8.847    -8.799     0.049
   BaHCO3+                6.588e-13   4.828e-13   -12.181   -12.316    -0.135
   BaCO3                  5.283e-14   5.910e-14   -13.277   -13.228     0.049
Ca               1.160e-02
   CaSO4                  6.732e-03   7.530e-03    -2.172    -2.123     0.049
   Ca+2                   4.832e-03   1.265e-03    -2.316    -2.898    -0.582
   CaHCO3+                2.683e-05   1.861e-05    -4.571    -4.730    -0.159
   CaCO3                  4.975e-06   5.565e-06    -5.303    -5.255     0.049
   CaOH+                  1.374e-08   1.007e-08    -7.862    -7.997    -0.135
   CaHSO4+                1.243e-09   9.110e-10    -8.906    -9.040    -0.135
Cl               1.400e-03
   Cl-                    1.400e-03   9.040e-04    -2.854    -3.044    -0.190
   FeCl+                  7.426e-09   5.443e-09    -8.129    -8.264    -0.135
   MnCl+                  1.608e-09   1.179e-09    -8.794    -8.929    -0.135
   MnCl2                  4.158e-13   4.651e-13   -12.381   -12.332     0.049
   MnCl3-                 1.580e-16   1.158e-16   -15.801   -15.936    -0.135
   FeCl+2                 7.789e-17   2.248e-17   -16.109   -16.648    -0.540
   FeCl2+                 1.238e-19   9.076e-20   -18.907   -19.042    -0.135
   FeCl3                  7.335e-24   8.204e-24   -23.135   -23.086     0.049
Fe(2)            3.903e-05
   FeSO4                  2.070e-05   2.315e-05    -4.684    -4.635     0.049
   Fe+2                   1.731e-05   4.362e-06    -4.762    -5.360    -0.599
   FeHCO3+                6.865e-07   5.031e-07    -6.163    -6.298    -0.135
   FeCO3                  2.450e-07   2.741e-07    -6.611    -6.562     0.049
   FeOH+                  9.030e-08   6.618e-08    -7.044    -7.179    -0.135
   FeCl+                  7.426e-09   5.443e-09    -8.129    -8.264    -0.135
   FeHSO4+                4.287e-12   3.142e-12   -11.368   -11.503    -0.135
   Fe(HS)2                0.000e+00   0.000e+00  -123.243  -123.195     0.049
   Fe(HS)3-               0.000e+00   0.000e+00  -184.415  -184.550    -0.135
Fe(3)            2.942e-05
   Fe(OH)3                2.240e-05   2.505e-05    -4.650    -4.601     0.049
   Fe(OH)2+               5.530e-06   4.053e-06    -5.257    -5.392    -0.135
   Fe(OH)4-               1.496e-06   1.096e-06    -5.825    -5.960    -0.135
   FeOH+2                 8.840e-10   2.551e-10    -9.054    -9.593    -0.540
   FeSO4+                 3.676e-13   2.694e-13   -12.435   -12.570    -0.135
   Fe(SO4)2-              2.400e-13   1.759e-13   -12.620   -12.755    -0.135
   Fe+3                   9.123e-15   8.234e-16   -14.040   -15.084    -1.045
   Fe2(OH)2+4             2.526e-16   1.751e-18   -15.598   -17.757    -2.159
   FeCl+2                 7.789e-17   2.248e-17   -16.109   -16.648    -0.540
   Fe3(OH)4+5             3.504e-18   1.483e-21   -17.455   -20.829    -3.373
   FeCl2+                 1.238e-19   9.076e-20   -18.907   -19.042    -0.135
   FeHSO4+2               5.163e-20   1.490e-20   -19.287   -19.827    -0.540
   FeCl3                  7.335e-24   8.204e-24   -23.135   -23.086     0.049
H(0)             1.382e-25
   H2                     6.908e-26   7.727e-26   -25.161   -25.112     0.049
Mn(2)            2.895e-06
   MnSO4                  1.519e-06   1.699e-06    -5.819    -5.770     0.049
   Mn+2                   1.270e-06   3.201e-07    -5.896    -6.495    -0.599
   MnCO3                  5.954e-08   6.660e-08    -7.225    -7.177     0.049
   MnHCO3+                4.489e-08   3.290e-08    -7.348    -7.483    -0.135
   MnCl+                  1.608e-09   1.179e-09    -8.794    -8.929    -0.135
   MnOH+                  5.386e-10   3.947e-10    -9.269    -9.404    -0.135
   MnCl2                  4.158e-13   4.651e-13   -12.381   -12.332     0.049
   MnCl3-                 1.580e-16   1.158e-16   -15.801   -15.936    -0.135
   Mn(NO3)2               0.000e+00   0.000e+00   -91.239   -91.190     0.049
Mn(3)            3.203e-28
   Mn+3                   3.203e-28   1.955e-29   -27.494   -28.709    -1.214
N(-3)            3.731e-27
   NH4+                   2.812e-27   1.672e-27   -26.551   -26.777    -0.226
   NH4SO4-                8.769e-28   6.427e-28   -27.057   -27.192    -0.135
   NH3                    4.124e-29   4.613e-29   -28.385   -28.336     0.049
N(0)             7.599e-04
   N2                     3.799e-04   4.250e-04    -3.420    -3.372     0.049
N(3)             1.496e-36
   NO2-                   1.496e-36   9.210e-37   -35.825   -36.036    -0.211
N(5)             0.000e+00
   NO3-                   0.000e+00   0.000e+00   -42.437   -42.648    -0.211
   Mn(NO3)2               0.000e+00   0.000e+00   -91.239   -91.190     0.049
Na               3.762e-01
   Na+                    3.284e-01   2.331e-01    -0.484    -0.632    -0.149
   NaSO4-                 4.757e-02   3.487e-02    -1.323    -1.458    -0.135
   NaHCO3                 1.352e-04   1.512e-04    -3.869    -3.820     0.049
   NaCO3-                 1.551e-05   1.137e-05    -4.809    -4.944    -0.135
   NaOH                   6.606e-08   7.389e-08    -7.180    -7.131     0.049
O(0)             0.000e+00
   O2                     0.000e+00   0.000e+00   -42.213   -42.164     0.049
S(-2)            0.000e+00
   HS-                    0.000e+00   0.000e+00   -63.195   -63.392    -0.197
   H2S                    0.000e+00   0.000e+00   -64.184   -64.136     0.049
   S-2                    0.000e+00   0.000e+00   -67.963   -68.625    -0.662
   Fe(HS)2                0.000e+00   0.000e+00  -123.243  -123.195     0.049
   Fe(HS)3-               0.000e+00   0.000e+00  -184.415  -184.550    -0.135
S(6)             1.978e-01
   SO4-2                  1.435e-01   2.984e-02    -0.843    -1.525    -0.682
   NaSO4-                 4.757e-02   3.487e-02    -1.323    -1.458    -0.135
   CaSO4                  6.732e-03   7.530e-03    -2.172    -2.123     0.049
   FeSO4                  2.070e-05   2.315e-05    -4.684    -4.635     0.049
   SrSO4                  4.946e-06   5.533e-06    -5.306    -5.257     0.049
   MnSO4                  1.519e-06   1.699e-06    -5.819    -5.770     0.049
   HSO4-                  8.176e-08   5.992e-08    -7.087    -7.222    -0.135
   CaHSO4+                1.243e-09   9.110e-10    -8.906    -9.040    -0.135
   BaSO4                  5.840e-10   6.532e-10    -9.234    -9.185     0.049
   FeHSO4+                4.287e-12   3.142e-12   -11.368   -11.503    -0.135
   FeSO4+                 3.676e-13   2.694e-13   -12.435   -12.570    -0.135
   Fe(SO4)2-              2.400e-13   1.759e-13   -12.620   -12.755    -0.135
   FeHSO4+2               5.163e-20   1.490e-20   -19.287   -19.827    -0.540
   NH4SO4-                8.769e-28   6.427e-28   -27.057   -27.192    -0.135
Si               2.493e-04
   H4SiO4                 2.466e-04   2.759e-04    -3.608    -3.559     0.049
   H3SiO4-                2.687e-06   1.970e-06    -5.571    -5.706    -0.135
   H2SiO4-2               2.248e-11   6.488e-12   -10.648   -11.188    -0.540
Sr               8.634e-06
   SrSO4                  4.946e-06   5.533e-06    -5.306    -5.257     0.049
   Sr+2                   3.663e-06   9.508e-07    -5.436    -6.022    -0.586
   SrHCO3+                2.418e-08   1.678e-08    -7.616    -7.775    -0.159
   SrCO3                  1.421e-09   1.590e-09    -8.847    -8.799     0.049
   SrOH+                  3.426e-12   2.340e-12   -11.465   -11.631    -0.166

------------------------------Saturation indices-------------------------------

	Phase               SI log IAP  log KT

	Anhydrite        -0.06   -4.42   -4.36  CaSO4
	Aragonite        -0.14   -8.48   -8.34  CaCO3
	Barite           -1.91  -11.88   -9.97  BaSO4
	Calcite              0   -8.48   -8.48  CaCO3
	Celestite        -0.92   -7.55   -6.63  SrSO4
	CH4(g)          -64.86  -67.72   -2.86  CH4
	Chalcedony           0   -3.55   -3.55  SiO2
	CO2(g)           -2.80   -4.27   -1.47  CO2
	Fe(OH)3(a)        3.07    7.96    4.89  Fe(OH)3
	FeS(ppt)        -57.15  -61.07   -3.92  FeS
	Goethite          8.96    7.96   -1.00  FeOOH
	Gypsum            0.15   -4.43   -4.58  CaSO4:2H2O
	H2(g)           -21.96  -25.11   -3.15  H2
	H2O(g)           -1.51       0    1.51  H2O
	H2S(g)          -63.14  -64.14   -1.00  H2S
	Halite           -5.26   -3.68    1.58  NaCl
	Hausmannite     -12.46   48.57   61.03  Mn3O4
	Hematite         19.94   15.93   -4.01  Fe2O3
	Mackinawite     -56.42  -61.07   -4.65  FeS
	Manganite        -5.49   19.85   25.34  MnOOH
	Melanterite      -4.70   -6.91   -2.21  FeSO4:7H2O
	N2(g)            -0.11   -3.37   -3.26  N2
	NH3(g)          -30.11  -28.34    1.77  NH3
	O2(g)           -39.20  -42.16   -2.96  O2
	Pyrite          -91.70 -110.18  -18.48  FeS2
	Pyrochroite      -6.33    8.87   15.20  Mn(OH)2
	Pyrolusite      -10.55   30.83   41.38  MnO2
	Quartz            0.43   -3.55   -3.98  SiO2
	Rhodochrosite    -0.95  -12.08  -11.13  MnCO3
	Siderite         -0.05  -10.94  -10.89  FeCO3
	SiO2(a)          -0.84   -3.55   -2.71  SiO2
	Strontianite     -2.33  -11.60   -9.27  SrCO3
	Sulfur          -47.06  -42.17    4.88  S
	Witherite        -7.38  -15.94   -8.56  BaCO3

Time 0. Cell 7: x=              6	y=              0	z=              0
Using solution 7.
Using exchange 7
Using surface 7.
Using pure phase assemblage 7.
Using solid solution assemblage 7.
Using gas phase 7.

-----------------------------------Gas phase-----------------------------------


Total pressure:   0.7742   atmospheres
    Gas volume:   1.60e+00 liters

                                                        Moles in gas
                                            ----------------------------------
Component                log P           P     Initial       Final       Delta

N2(g)                    -0.11   7.742e-01   5.101e-02   5.063e-02   0.000e+00
O2(g)                   -39.89   1.302e-40   4.905e-06   0.000e+00   0.000e+00

-------------------------------Phase assemblage--------------------------------

                                                      Moles in assemblage
Phase                  SI log IAP  log KT      Initial       Final       Delta

Calcite                 0   -8.48   -8.48    1.600e+00   1.774e+00   1.744e-01
Chalcedony              0   -3.55   -3.55    4.000e-04   1.506e-04  -2.494e-04

--------------------------------Solid solutions--------------------------------


Solid solution                Component        Moles  Delta moles   Mole fract

CaSrBaSO4                                   1.34e+00
                              Anhydrite     1.17e+00    -4.33e-01     8.69e-01
                                 Barite     1.60e-02    -1.05e-08     1.19e-02
                              Celestite     1.60e-01    -1.59e-04     1.19e-01
SrCaCO3                                     2.64e-01
                          rhodochrosite     3.59e-02    -4.11e-03     1.36e-01
                               siderite     2.28e-01    -1.72e-01     8.64e-01

------------------------------Surface composition------------------------------

Hfo           
	  6.236e-05  Surface charge, eq
	  6.268e-03  sigma, C/m**2
	  3.927e-03  psi, V
	 -1.529e-01  -F*psi/RT
	  8.583e-01  exp(-F*psi/RT)
	  6.000e+02  specific area, m**2/g
	  9.600e+02  m**2 for   1.600e+00 g


Hfo_w         
	  1.600e+00  moles
	                                   Mole                     Log
	Species               Moles    Fraction    Molality    Molality

	Hfo_wOH           8.007e-01       0.500   8.005e-01      -0.097
	Hfo_wOH2+         2.752e-01       0.172   2.751e-01      -0.560
	Hfo_wOHSO4-2      2.001e-01       0.125   2.001e-01      -0.699
	Hfo_wOFe+         1.493e-01       0.093   1.492e-01      -0.826
	Hfo_wOCa+         5.993e-02       0.037   5.992e-02      -1.222
	Hfo_wO-           5.337e-02       0.033   5.336e-02      -1.273
	Hfo_wSO4-         3.479e-02       0.022   3.478e-02      -1.459
	Hfo_wOFeOH        2.259e-02       0.014   2.258e-02      -1.646
	Hfo_wOMn+         4.085e-03       0.003   4.085e-03      -2.389
	Hfo_wOSr+         8.184e-06           0   8.182e-06      -5.087
	Hfo_wOSrOH        4.394e-09           0   4.393e-09      -8.357
	Hfo_wOBa+         9.017e-11           0   9.015e-11     -10.045

Surf          
	  0.000e+00  Surface charge, eq
	  0.000e+00  sigma, C/m**2
	  0.000e+00  psi, V
	 -0.000e+00  -F*psi/RT
	  1.000e+00  exp(-F*psi/RT)
	  6.000e+02  specific area, m**2/g
	  2.400e+02  m**2 for   4.000e-01 g


Surf          
	  4.000e-01  moles
	                                   Mole                     Log
	Species               Moles    Fraction    Molality    Molality

	SurfOH            4.000e-01       1.000   3.999e-01      -0.398

-----------------------------Exchange composition------------------------------

X                1.600e+00 mol

	                               Equiv-    Equivalent      Log 
	Species             Moles      alents      Fraction     Gamma

	NaX               1.300e+00   1.300e+00   8.126e-01    -0.149
	CaX2              1.495e-01   2.990e-01   1.869e-01    -0.582
	FeX2              2.277e-04   4.554e-04   2.846e-04    -0.599
	SrX2              1.424e-04   2.848e-04   1.780e-04    -0.586
	MnX2              2.481e-05   4.962e-05   3.101e-05    -0.599
	BaX2              7.805e-09   1.561e-08   9.757e-09    -0.663
	NH4X              1.429e-25   1.429e-25   8.933e-26    -0.226
Y                4.000e-01 mol

	                               Equiv-    Equivalent      Log 
	Species             Moles      alents      Fraction     Gamma

	NaY               3.252e-01   3.252e-01   8.130e-01    -0.149
	CaY2              3.740e-02   7.481e-02   1.870e-01    -0.582
	BaY2              1.953e-09   3.906e-09   9.765e-09    -0.663

-----------------------------Solution composition------------------------------

	Elements           Molality       Moles

	Ba                7.685e-10   7.687e-10
	Br                3.999e-04   4.000e-04
	C                 1.891e-03   1.891e-03
	Ca                1.163e-02   1.163e-02
	Cl                1.600e-03   1.600e-03
	Fe                5.775e-05   5.776e-05
	Mn                3.494e-06   3.494e-06
	N                 7.606e-04   7.608e-04
	Na                3.765e-01   3.766e-01
	S                 1.980e-01   1.981e-01
	Si                2.493e-04   2.494e-04
	Sr                8.448e-06   8.450e-06

----------------------------Description of solution----------------------------

                                       pH  =   7.687      Charge balance
                                       pe  =   3.123      Adjusted to redox equilibrium
                        Activity of water  =   0.991
                           Ionic strength  =   4.870e-01
                       Mass of water (kg)  =   1.000e+00
                 Total alkalinity (eq/kg)  =   1.895e-03
                       Total CO2 (mol/kg)  =   1.891e-03
                      Temperature (deg C)  =  25.000
                  Electrical balance (eq)  =  -6.236e-05
 Percent error, 100*(Cat-|An|)/(Cat+|An|)  =  -0.01
                               Iterations  =  31
                                  Total H  = 1.110387e+02
                                  Total O  = 5.631689e+01

----------------------------Distribution of species----------------------------

                                                   Log       Log         Log 
   Species                 Molality    Activity  Molality  Activity     Gamma

   OH-                    7.607e-07   4.830e-07    -6.119    -6.316    -0.197
   H+                     2.683e-08   2.054e-08    -7.571    -7.687    -0.116
   H2O                    5.551e+01   9.909e-01     1.744    -0.004         0
Ba               7.685e-10
   BaSO4                  5.714e-10   6.392e-10    -9.243    -9.194     0.049
   Ba+2                   1.964e-10   4.271e-11    -9.707   -10.369    -0.663
   BaHCO3+                6.390e-13   4.684e-13   -12.194   -12.329    -0.135
   BaCO3                  5.153e-14   5.764e-14   -13.288   -13.239     0.049
   BaOH+                  9.527e-17   6.983e-17   -16.021   -16.156    -0.135
Br               3.999e-04
   Br-                    3.999e-04   2.462e-04    -3.398    -3.609    -0.211
C(-4)            0.000e+00
   CH4                    0.000e+00   0.000e+00   -66.409   -66.360     0.049
C(4)             1.891e-03
   HCO3-                  1.649e-03   1.144e-03    -2.783    -2.942    -0.159
   NaHCO3                 1.342e-04   1.501e-04    -3.872    -3.824     0.049
   CO2                    4.766e-05   5.331e-05    -4.322    -4.273     0.049
   CaHCO3+                2.668e-05   1.851e-05    -4.574    -4.733    -0.159
   NaCO3-                 1.548e-05   1.135e-05    -4.810    -4.945    -0.135
   CO3-2                  1.128e-05   2.612e-06    -4.948    -5.583    -0.635
   CaCO3                  4.975e-06   5.565e-06    -5.303    -5.255     0.049
   FeHCO3+                6.650e-07   4.874e-07    -6.177    -6.312    -0.135
   FeCO3                  2.387e-07   2.670e-07    -6.622    -6.574     0.049
   MnCO3                  7.162e-08   8.012e-08    -7.145    -7.096     0.049
   MnHCO3+                5.371e-08   3.937e-08    -7.270    -7.405    -0.135
   SrHCO3+                2.346e-08   1.627e-08    -7.630    -7.789    -0.159
   SrCO3                  1.386e-09   1.551e-09    -8.858    -8.809     0.049
   BaHCO3+                6.390e-13   4.684e-13   -12.194   -12.329    -0.135
   BaCO3                  5.153e-14   5.764e-14   -13.288   -13.239     0.049
Ca               1.163e-02
   CaSO4                  6.754e-03   7.555e-03    -2.170    -2.122     0.049
   Ca+2                   4.846e-03   1.268e-03    -2.315    -2.897    -0.582
   CaHCO3+                2.668e-05   1.851e-05    -4.574    -4.733    -0.159
   CaCO3                  4.975e-06   5.565e-06    -5.303    -5.255     0.049
   CaOH+                  1.385e-08   1.015e-08    -7.858    -7.993    -0.135
   CaHSO4+                1.240e-09   9.090e-10    -8.907    -9.041    -0.135
Cl               1.600e-03
   Cl-                    1.600e-03   1.033e-03    -2.796    -2.986    -0.190
   FeCl+                  8.288e-09   6.075e-09    -8.082    -8.216    -0.135
   MnCl+                  2.217e-09   1.625e-09    -8.654    -8.789    -0.135
   MnCl2                  6.549e-13   7.326e-13   -12.184   -12.135     0.049
   MnCl3-                 2.844e-16   2.084e-16   -15.546   -15.681    -0.135
   FeCl+2                 5.841e-17   1.686e-17   -16.234   -16.773    -0.540
   FeCl2+                 1.061e-19   7.778e-20   -18.974   -19.109    -0.135
   FeCl3                  7.182e-24   8.034e-24   -23.144   -23.095     0.049
Fe(2)            3.813e-05
   FeSO4                  2.022e-05   2.262e-05    -4.694    -4.645     0.049
   Fe+2                   1.691e-05   4.261e-06    -4.772    -5.371    -0.599
   FeHCO3+                6.650e-07   4.874e-07    -6.177    -6.312    -0.135
   FeCO3                  2.387e-07   2.670e-07    -6.622    -6.574     0.049
   FeOH+                  8.869e-08   6.500e-08    -7.052    -7.187    -0.135
   FeCl+                  8.288e-09   6.075e-09    -8.082    -8.216    -0.135
   FeHSO4+                4.167e-12   3.054e-12   -11.380   -11.515    -0.135
   Fe(HS)2                0.000e+00   0.000e+00  -120.533  -120.484     0.049
   Fe(HS)3-               0.000e+00   0.000e+00  -180.344  -180.479    -0.135
Fe(3)            1.961e-05
   Fe(OH)3                1.494e-05   1.671e-05    -4.826    -4.777     0.049
   Fe(OH)2+               3.669e-06   2.689e-06    -5.435    -5.570    -0.135
   Fe(OH)4-               1.003e-06   7.355e-07    -5.999    -6.133    -0.135
   FeOH+2                 5.833e-10   1.683e-10    -9.234    -9.774    -0.540
   FeSO4+                 2.414e-13   1.769e-13   -12.617   -12.752    -0.135
   Fe(SO4)2-              1.577e-13   1.156e-13   -12.802   -12.937    -0.135
   Fe+3                   5.989e-15   5.404e-16   -14.223   -15.267    -1.045
   Fe2(OH)2+4             1.099e-16   7.626e-19   -15.959   -18.118    -2.159
   FeCl+2                 5.841e-17   1.686e-17   -16.234   -16.773    -0.540
   Fe3(OH)4+5             1.012e-18   4.285e-22   -17.995   -21.368    -3.373
   FeCl2+                 1.061e-19   7.778e-20   -18.974   -19.109    -0.135
   FeHSO4+2               3.371e-20   9.730e-21   -19.472   -20.012    -0.540
   FeCl3                  7.182e-24   8.034e-24   -23.144   -23.095     0.049
H(0)             3.027e-25
   H2                     1.513e-25   1.693e-25   -24.820   -24.771     0.049
Mn(2)            3.494e-06
   MnSO4                  1.833e-06   2.050e-06    -5.737    -5.688     0.049
   Mn+2                   1.533e-06   3.861e-07    -5.815    -6.413    -0.599
   MnCO3                  7.162e-08   8.012e-08    -7.145    -7.096     0.049
   MnHCO3+                5.371e-08   3.937e-08    -7.270    -7.405    -0.135
   MnCl+                  2.217e-09   1.625e-09    -8.654    -8.789    -0.135
   MnOH+                  6.533e-10   4.788e-10    -9.185    -9.320    -0.135
   MnCl2                  6.549e-13   7.326e-13   -12.184   -12.135     0.049
   MnCl3-                 2.844e-16   2.084e-16   -15.546   -15.681    -0.135
   Mn(NO3)2               0.000e+00   0.000e+00   -92.855   -92.807     0.049
Mn(3)            2.596e-28
   Mn+3                   2.596e-28   1.585e-29   -27.586   -28.800    -1.214
N(-3)            1.204e-26
   NH4+                   9.077e-27   5.395e-27   -26.042   -26.268    -0.226
   NH4SO4-                2.831e-27   2.075e-27   -26.548   -26.683    -0.135
   NH3                    1.338e-28   1.497e-28   -27.874   -27.825     0.049
N(0)             7.606e-04
   N2                     3.803e-04   4.254e-04    -3.420    -3.371     0.049
N(3)             4.641e-37
   NO2-                   4.641e-37   2.857e-37   -36.333   -36.544    -0.211
N(5)             0.000e+00
   NO3-                   0.000e+00   0.000e+00   -43.286   -43.497    -0.211
   Mn(NO3)2               0.000e+00   0.000e+00   -92.855   -92.807     0.049
Na               3.765e-01
   Na+                    3.287e-01   2.333e-01    -0.483    -0.632    -0.149
   NaSO4-                 4.763e-02   3.491e-02    -1.322    -1.457    -0.135
   NaHCO3                 1.342e-04   1.501e-04    -3.872    -3.824     0.049
   NaCO3-                 1.548e-05   1.135e-05    -4.810    -4.945    -0.135
   NaOH                   6.648e-08   7.437e-08    -7.177    -7.129     0.049
O(0)             0.000e+00
   O2                     0.000e+00   0.000e+00   -42.894   -42.845     0.049
S(-2)            0.000e+00
   HS-                    0.000e+00   0.000e+00   -61.835   -62.032    -0.197
   H2S                    0.000e+00   0.000e+00   -62.826   -62.778     0.049
   S-2                    0.000e+00   0.000e+00   -66.600   -67.262    -0.663
   Fe(HS)2                0.000e+00   0.000e+00  -120.533  -120.484     0.049
   Fe(HS)3-               0.000e+00   0.000e+00  -180.344  -180.479    -0.135
S(6)             1.980e-01
   SO4-2                  1.436e-01   2.986e-02    -0.843    -1.525    -0.682
   NaSO4-                 4.763e-02   3.491e-02    -1.322    -1.457    -0.135
   CaSO4                  6.754e-03   7.555e-03    -2.170    -2.122     0.049
   FeSO4                  2.022e-05   2.262e-05    -4.694    -4.645     0.049
   SrSO4                  4.840e-06   5.414e-06    -5.315    -5.266     0.049
   MnSO4                  1.833e-06   2.050e-06    -5.737    -5.688     0.049
   HSO4-                  8.135e-08   5.962e-08    -7.090    -7.225    -0.135
   CaHSO4+                1.240e-09   9.090e-10    -8.907    -9.041    -0.135
   BaSO4                  5.714e-10   6.392e-10    -9.243    -9.194     0.049
   FeHSO4+                4.167e-12   3.054e-12   -11.380   -11.515    -0.135
   FeSO4+                 2.414e-13   1.769e-13   -12.617   -12.752    -0.135
   Fe(SO4)2-              1.577e-13   1.156e-13   -12.802   -12.937    -0.135
   FeHSO4+2               3.371e-20   9.730e-21   -19.472   -20.012    -0.540
   NH4SO4-                2.831e-27   2.075e-27   -26.548   -26.683    -0.135
Si               2.493e-04
   H4SiO4                 2.466e-04   2.759e-04    -3.608    -3.559     0.049
   H3SiO4-                2.702e-06   1.981e-06    -5.568    -5.703    -0.135
   H2SiO4-2               2.273e-11   6.560e-12   -10.643   -11.183    -0.540
Sr               8.448e-06
   SrSO4                  4.840e-06   5.414e-06    -5.315    -5.266     0.049
   Sr+2                   3.583e-06   9.300e-07    -5.446    -6.032    -0.586
   SrHCO3+                2.346e-08   1.627e-08    -7.630    -7.789    -0.159
   SrCO3                  1.386e-09   1.551e-09    -8.858    -8.809     0.049
   SrOH+                  3.370e-12   2.301e-12   -11.472   -11.638    -0.166

------------------------------Saturation indices-------------------------------

	Phase               SI log IAP  log KT

	Anhydrite        -0.06   -4.42   -4.36  CaSO4
	Aragonite        -0.14   -8.48   -8.34  CaCO3
	Barite           -1.92  -11.89   -9.97  BaSO4
	Calcite              0   -8.48   -8.48  CaCO3
	Celestite        -0.92   -7.56   -6.63  SrSO4
	CH4(g)          -63.50  -66.36   -2.86  CH4
	Chalcedony           0   -3.55   -3.55  SiO2
	CO2(g)           -2.81   -4.27   -1.47  CO2
	Fe(OH)3(a)        2.89    7.78    4.89  Fe(OH)3
	FeS(ppt)        -55.80  -59.71   -3.92  FeS
	Goethite          8.79    7.79   -1.00  FeOOH
	Gypsum            0.15   -4.43   -4.58  CaSO4:2H2O
	H2(g)           -21.62  -24.77   -3.15  H2
	H2O(g)           -1.51       0    1.51  H2O
	H2S(g)          -61.78  -62.78   -1.00  H2S
	Halite           -5.20   -3.62    1.58  NaCl
	Hausmannite     -12.54   48.49   61.03  Mn3O4
	Hematite         19.59   15.58   -4.01  Fe2O3
	Mackinawite     -55.07  -59.71   -4.65  FeS
	Manganite        -5.58   19.76   25.34  MnOOH
	Melanterite      -4.71   -6.92   -2.21  FeSO4:7H2O
	N2(g)            -0.11   -3.37   -3.26  N2
	NH3(g)          -29.59  -27.82    1.77  NH3
	O2(g)           -39.89  -42.85   -2.96  O2
	Pyrite          -89.33 -107.81  -18.48  FeS2
	Pyrochroite      -6.25    8.95   15.20  Mn(OH)2
	Pyrolusite      -10.80   30.58   41.38  MnO2
	Quartz            0.43   -3.55   -3.98  SiO2
	Rhodochrosite    -0.87  -12.00  -11.13  MnCO3
	Siderite         -0.06  -10.95  -10.89  FeCO3
	SiO2(a)          -0.84   -3.55   -2.71  SiO2
	Strontianite     -2.34  -11.61   -9.27  SrCO3
	Sulfur          -46.04  -41.16    4.88  S
	Witherite        -7.39  -15.95   -8.56  BaCO3

Time 0. Cell 9: x=              8	y=              0	z=              0
Using solution 9.
Using exchange 9
Using surface 9.
Using pure phase assemblage 9.
Using solid solution assemblage 9.
Using gas phase 9.

-----------------------------------Gas phase-----------------------------------


Total pressure:   0.7748   atmospheres
    Gas volume:   1.80e+00 liters

                                                        Moles in gas
                                            ----------------------------------
Component                log P           P     Initial       Final       Delta

N2(g)                    -0.11   7.748e-01   5.739e-02   5.700e-02   0.000e+00
O2(g)                   -40.92   1.196e-41   2.452e-06   0.000e+00   0.000e+00

-------------------------------Phase assemblage--------------------------------

                                                      Moles in assemblage
Phase                  SI log IAP  log KT      Initial       Final       Delta

Calcite                 0   -8.48   -8.48    1.800e+00   1.984e+00   1.841e-01
Chalcedony          -0.10   -3.65   -3.55    2.000e-04           0  -2.000e-04

[...]
	CH4(g)          -61.55  -64.41   -2.86  CH4
	Chalcedony       -0.09   -3.64   -3.55  SiO2
	CO2(g)           -2.85   -4.31   -1.47  CO2
	Fe(OH)3(a)        2.60    7.50    4.89  Fe(OH)3
	FeS(ppt)        -53.89  -57.81   -3.92  FeS
	Gibbsite         -5.62    2.49    8.11  Al(OH)3
	Goethite          8.50    7.50   -1.00  FeOOH
	Gypsum            0.15   -4.43   -4.58  CaSO4:2H2O
	H2(g)           -21.12  -24.27   -3.15  H2
	H2O(g)           -1.51       0    1.51  H2O
	H2S(g)          -59.83  -60.83   -1.00  H2S
	Halite           -5.15   -3.57    1.58  NaCl
	Hausmannite     -11.97   49.06   61.03  Mn3O4
	Hematite         19.01   15.00   -4.01  Fe2O3
	Jarosite-K       -8.36  -17.57   -9.21  KFe3(SO4)2(OH)6
	K-feldspar      -16.71  -37.29  -20.57  KAlSi3O8
	K-mica          -22.34   -9.64   12.70  KAl3Si3O10(OH)2
	Kaolinite        -9.74   -2.30    7.43  Al2Si2O5(OH)4
	Mackinawite     -53.16  -57.81   -4.65  FeS
	Manganite        -5.47   19.87   25.34  MnOOH
	Melanterite      -4.79   -7.00   -2.21  FeSO4:7H2O
	N2(g)            -0.11   -3.37   -3.26  N2
	NH3(g)          -28.85  -27.08    1.77  NH3
	O2(g)           -40.88  -43.84   -2.96  O2
	Pyrite          -85.97 -104.45  -18.48  FeS2
	Pyrochroite      -5.89    9.31   15.20  Mn(OH)2
	Pyrolusite      -10.95   30.43   41.38  MnO2
	Quartz            0.34   -3.64   -3.98  SiO2
	Rhodochrosite    -0.55  -11.68  -11.13  MnCO3
	Siderite         -0.14  -11.03  -10.89  FeCO3
	SiO2(a)          -0.93   -3.64   -2.71  SiO2
	Strontianite     -2.35  -11.62   -9.27  SrCO3
	Sulfur          -44.59  -39.70    4.88  S
	Witherite        -7.40  -15.96   -8.56  BaCO3

Time 0.5. Cell 11: x=             10	y=              0	z=              0
Using solution 11.
Using exchange 11
Using surface 11.
Using pure phase assemblage 11.
Using solid solution assemblage 11.
Using gas phase 11.
Using kinetics 11.

Kinetics.

	Time:      0.5 seconds
	Time step: 0.5 seconds

	Rate name       Delta Moles Total Moles   Reactant        Coefficient

	K-feldspar       -4.503e-13   2.000e+00   K-feldspar                1

-----------------------------------Gas phase-----------------------------------


Total pressure:   0.7753   atmospheres
    Gas volume:   2.00e+00 liters

                                                        Moles in gas
                                            ----------------------------------
Component                log P           P     Initial       Final       Delta

N2(g)                    -0.11   7.753e-01   6.338e-02   6.338e-02   0.000e+00

-------------------------------Phase assemblage--------------------------------

                                                      Moles in assemblage
Phase                  SI log IAP  log KT      Initial       Final       Delta

Calcite                 0   -8.48   -8.48    1.999e+00   1.999e+00   3.431e-05

--------------------------------Solid solutions--------------------------------


Solid solution                Component        Moles  Delta moles   Mole fract

CaSrBaSO4                                   1.82e+00
                              Anhydrite     1.60e+00    -3.09e-05     8.79e-01
                                 Barite     2.00e-02     1.62e-12     1.10e-02
                              Celestite     2.00e-01     1.53e-08     1.10e-01

------------------------------Surface composition------------------------------

Hfo           
	 -4.763e-05  Surface charge, eq
	 -3.830e-03  sigma, C/m**2
	 -2.398e-03  psi, V
	  9.334e-02  -F*psi/RT
	  1.098e+00  exp(-F*psi/RT)
	  6.000e+02  specific area, m**2/g
	  1.200e+03  m**2 for   2.000e+00 g


Hfo_w         
	  2.000e+00  moles
	                                   Mole                     Log
	Species               Moles    Fraction    Molality    Molality

	Hfo_wOH           1.188e+00       0.594   1.187e+00       0.075
	Hfo_wOH2+         2.921e-01       0.146   2.920e-01      -0.535
	Hfo_wOCa+         2.050e-01       0.103   2.049e-01      -0.688
	Hfo_wOHSO4-2      1.820e-01       0.091   1.819e-01      -0.740
	Hfo_wO-           1.106e-01       0.055   1.106e-01      -0.956
	Hfo_wSO4-         2.263e-02       0.011   2.262e-02      -1.645
	Hfo_wOSr+         2.558e-05           0   2.557e-05      -4.592
	Hfo_wOFe+         9.513e-07           0   9.509e-07      -6.022
	Hfo_wOMn+         4.250e-07           0   4.249e-07      -6.372
	Hfo_wOFeOH        2.012e-07           0   2.011e-07      -6.697
	Hfo_wOSrOH        1.920e-08           0   1.919e-08      -7.717
	Hfo_wOBa+         2.819e-10           0   2.818e-10      -9.550

-----------------------------Exchange composition------------------------------

X                2.000e+00 mol

	                               Equiv-    Equivalent      Log 
	Species             Moles      alents      Fraction     Gamma

	NaX               1.624e+00   1.624e+00   8.122e-01    -0.149
	CaX2              1.876e-01   3.752e-01   1.876e-01    -0.582
	SrX2              1.633e-04   3.266e-04   1.633e-04    -0.586
	BaX2              8.954e-09   1.791e-08   8.954e-09    -0.663
	MnX2              9.471e-10   1.894e-09   9.471e-10    -0.599
	FeX2              5.325e-10   1.065e-09   5.325e-10    -0.599
	KX                4.297e-13   4.297e-13   2.149e-13    -0.190
	AlOHX2            3.845e-17   7.691e-17   3.845e-17    -0.540
	AlX3              7.825e-20   2.348e-19   1.174e-19    -1.045
	NH4X              1.078e-36   1.078e-36   5.388e-37    -0.226

-----------------------------Solution composition------------------------------

	Elements           Molality       Moles

	Al                4.501e-13   4.503e-13
	Ba                7.095e-10   7.098e-10
	Br                1.040e-05   1.041e-05
	C                 1.051e-03   1.051e-03
	Ca                1.174e-02   1.174e-02
	Cl                1.989e-03   1.990e-03
	Fe                5.104e-07   5.106e-07
	K                 2.061e-14   2.062e-14
	Mn                1.066e-10   1.066e-10
	N                 7.615e-04   7.618e-04
	Na                3.773e-01   3.775e-01
	S                 1.989e-01   1.989e-01
	Si                1.039e-05   1.039e-05
	Sr                7.789e-06   7.792e-06

----------------------------Description of solution----------------------------

                                       pH  =   7.940      Charge balance
                                       pe  =   6.526      Adjusted to redox equilibrium
                        Activity of water  =   0.991
                           Ionic strength  =   4.882e-01
                       Mass of water (kg)  =   1.000e+00
                 Total alkalinity (eq/kg)  =   1.070e-03
                       Total CO2 (mol/kg)  =   1.051e-03
                      Temperature (deg C)  =  25.000
                  Electrical balance (eq)  =   4.159e-05
 Percent error, 100*(Cat-|An|)/(Cat+|An|)  =   0.01
                               Iterations  =  50
                                  Total H  = 1.110570e+02
                                  Total O  = 5.632694e+01

----------------------------Distribution of species----------------------------

                                                   Log       Log         Log 
   Species                 Molality    Activity  Molality  Activity     Gamma

   OH-                    1.360e-06   8.634e-07    -5.866    -6.064    -0.197
   H+                     1.501e-08   1.149e-08    -7.824    -7.940    -0.116
   H2O                    5.551e+01   9.909e-01     1.744    -0.004         0
Al               4.501e-13
   Al(OH)4-               4.481e-13   3.285e-13   -12.349   -12.483    -0.135
   Al(OH)3                1.806e-15   2.021e-15   -14.743   -14.695     0.049
   Al(OH)2+               2.169e-16   1.590e-16   -15.664   -15.799    -0.135
   AlOH+2                 8.147e-19   2.352e-19   -18.089   -18.629    -0.540
   AlSO4+                 3.547e-20   2.600e-20   -19.450   -19.585    -0.135
   Al(SO4)2-              3.359e-20   2.462e-20   -19.474   -19.609    -0.135
   Al+3                   3.046e-21   2.745e-22   -20.516   -21.561    -1.045
   AlHSO4+2               9.173e-29   2.648e-29   -28.037   -28.577    -0.540
Ba               7.095e-10
   BaSO4                  5.280e-10   5.908e-10    -9.277    -9.229     0.049
   Ba+2                   1.812e-10   3.936e-11    -9.742   -10.405    -0.663
   BaHCO3+                3.266e-13   2.394e-13   -12.486   -12.621    -0.135
   BaCO3                  4.707e-14   5.267e-14   -13.327   -13.278     0.049
   BaOH+                  1.569e-16   1.150e-16   -15.804   -15.939    -0.135
Br               1.040e-05
   Br-                    1.040e-05   6.403e-06    -4.983    -5.194    -0.211
C(-4)            0.000e+00
   CH4                    0.000e+00   0.000e+00   -96.162   -96.113     0.049
C(4)             1.051e-03
   HCO3-                  9.149e-04   6.345e-04    -3.039    -3.198    -0.159
   NaHCO3                 7.454e-05   8.340e-05    -4.128    -4.079     0.049
   NaCO3-                 1.538e-05   1.127e-05    -4.813    -4.948    -0.135
   CaHCO3+                1.493e-05   1.035e-05    -4.826    -4.985    -0.159
   CO2                    1.478e-05   1.654e-05    -4.830    -4.781     0.049
   CO3-2                  1.120e-05   2.590e-06    -4.951    -5.587    -0.636
   CaCO3                  4.973e-06   5.565e-06    -5.303    -5.255     0.049
   SrHCO3+                1.199e-08   8.318e-09    -7.921    -8.080    -0.159
   SrCO3                  1.266e-09   1.417e-09    -8.897    -8.849     0.049
   MnCO3                  2.177e-12   2.437e-12   -11.662   -11.613     0.049
   MnHCO3+                9.136e-13   6.697e-13   -12.039   -12.174    -0.135
   FeHCO3+                6.929e-13   5.079e-13   -12.159   -12.294    -0.135
   FeCO3                  4.445e-13   4.974e-13   -12.352   -12.303     0.049
   BaHCO3+                3.266e-13   2.394e-13   -12.486   -12.621    -0.135
   BaCO3                  4.707e-14   5.267e-14   -13.327   -13.278     0.049
Ca               1.174e-02
   CaSO4                  6.829e-03   7.641e-03    -2.166    -2.117     0.049
   Ca+2                   4.890e-03   1.279e-03    -2.311    -2.893    -0.582
   CaHCO3+                1.493e-05   1.035e-05    -4.826    -4.985    -0.159
   CaCO3                  4.973e-06   5.565e-06    -5.303    -5.255     0.049
   CaOH+                  2.497e-08   1.831e-08    -7.602    -7.737    -0.135
   CaHSO4+                7.016e-10   5.143e-10    -9.154    -9.289    -0.135
Cl               1.989e-03
   Cl-                    1.989e-03   1.284e-03    -2.701    -2.891    -0.190
   MnCl+                  8.450e-14   6.194e-14   -13.073   -13.208    -0.135
   FeCl+                  1.935e-14   1.419e-14   -13.713   -13.848    -0.135
   MnCl2                  3.102e-17   3.471e-17   -16.508   -16.459     0.049
   FeCl+2                 3.451e-19   9.962e-20   -18.462   -19.002    -0.540
   MnCl3-                 1.675e-20   1.228e-20   -19.776   -19.911    -0.135
   FeCl2+                 7.794e-22   5.713e-22   -21.108   -21.243    -0.135
   FeCl3                  6.555e-26   7.335e-26   -25.183   -25.135     0.049
Fe(2)            7.134e-11
   FeSO4                  3.809e-11   4.263e-11   -10.419   -10.370     0.049
   Fe+2                   3.180e-11   8.005e-12   -10.498   -11.097    -0.599
   FeHCO3+                6.929e-13   5.079e-13   -12.159   -12.294    -0.135
   FeCO3                  4.445e-13   4.974e-13   -12.352   -12.303     0.049
   FeOH+                  2.979e-13   2.183e-13   -12.526   -12.661    -0.135
   FeCl+                  1.935e-14   1.419e-14   -13.713   -13.848    -0.135
   FeHSO4+                4.391e-18   3.219e-18   -17.357   -17.492    -0.135
   Fe(HS)2                0.000e+00   0.000e+00  -185.250  -185.201     0.049
   Fe(HS)3-               0.000e+00   0.000e+00  -274.557  -274.692    -0.135
Fe(3)            5.103e-07
   Fe(OH)3                4.058e-07   4.541e-07    -6.392    -6.343     0.049
   Fe(OH)2+               5.575e-08   4.087e-08    -7.254    -7.389    -0.135
   Fe(OH)4-               4.873e-08   3.572e-08    -7.312    -7.447    -0.135
   FeOH+2                 4.956e-12   1.431e-12   -11.305   -11.844    -0.540
   FeSO4+                 1.151e-15   8.437e-16   -14.939   -15.074    -0.135
   Fe(SO4)2-              7.540e-16   5.527e-16   -15.123   -15.257    -0.135
   Fe+3                   2.851e-17   2.569e-18   -16.545   -17.590    -1.045
   FeCl+2                 3.451e-19   9.962e-20   -18.462   -19.002    -0.540
   Fe2(OH)2+4             7.934e-21   5.511e-23   -20.101   -22.259    -2.158
   FeCl2+                 7.794e-22   5.713e-22   -21.108   -21.243    -0.135
   FeHSO4+2               8.990e-23   2.595e-23   -22.046   -22.586    -0.540
   Fe3(OH)4+5             1.109e-24   4.705e-28   -23.955   -27.327    -3.372
   FeCl3                  6.555e-26   7.335e-26   -25.183   -25.135     0.049
H(0)             1.478e-32
   H2                     7.391e-33   8.271e-33   -32.131   -32.082     0.049
K                2.061e-14
   K+                     1.739e-14   1.122e-14   -13.760   -13.950    -0.190
   KSO4-                  3.222e-15   2.362e-15   -14.492   -14.627    -0.135
   KOH                    3.000e-21   3.357e-21   -20.523   -20.474     0.049
Mn(2)            1.066e-10
   MnSO4                  5.636e-11   6.306e-11   -10.249   -10.200     0.049
   Mn+2                   4.704e-11   1.184e-11   -10.328   -10.927    -0.599
   MnCO3                  2.177e-12   2.437e-12   -11.662   -11.613     0.049
   MnHCO3+                9.136e-13   6.697e-13   -12.039   -12.174    -0.135
   MnCl+                  8.450e-14   6.194e-14   -13.073   -13.208    -0.135
   MnOH+                  3.582e-14   2.625e-14   -13.446   -13.581    -0.135
   MnCl2                  3.102e-17   3.471e-17   -16.508   -16.459     0.049
   MnCl3-                 1.675e-20   1.228e-20   -19.776   -19.911    -0.135
   Mn(NO3)2               0.000e+00   0.000e+00   -60.308   -60.259     0.049
Mn(3)            2.014e-29
   Mn+3                   2.014e-29   1.230e-30   -28.696   -29.910    -1.214
N(-3)            7.350e-38
   NH4+                   5.489e-38   3.261e-38   -37.261   -37.487    -0.226
   NH4SO4-                1.716e-38   1.258e-38   -37.765   -37.900    -0.135
   NH3                    1.446e-39   1.618e-39   -38.840   -38.791     0.049
N(0)             7.615e-04
   N2                     3.808e-04   4.261e-04    -3.419    -3.371     0.049
N(3)             7.692e-26
   NO2-                   7.692e-26   4.734e-26   -25.114   -25.325    -0.211
N(5)             1.756e-25
   NO3-                   1.756e-25   1.081e-25   -24.756   -24.966    -0.211
   Mn(NO3)2               0.000e+00   0.000e+00   -60.308   -60.259     0.049
Na               3.773e-01
   Na+                    3.294e-01   2.338e-01    -0.482    -0.631    -0.149
   NaSO4-                 4.786e-02   3.508e-02    -1.320    -1.455    -0.135
   NaHCO3                 7.454e-05   8.340e-05    -4.128    -4.079     0.049
   NaCO3-                 1.538e-05   1.127e-05    -4.813    -4.948    -0.135
   NaOH                   1.190e-07   1.332e-07    -6.924    -6.875     0.049
O(0)             1.069e-28
   O2                     5.347e-29   5.983e-29   -28.272   -28.223     0.049
S(-2)            0.000e+00
   HS-                    0.000e+00   0.000e+00   -91.330   -91.527    -0.197
   H2S                    0.000e+00   0.000e+00   -92.574   -92.525     0.049
   S-2                    0.000e+00   0.000e+00   -95.843   -96.506    -0.663
   Fe(HS)2                0.000e+00   0.000e+00  -185.250  -185.201     0.049
   Fe(HS)3-               0.000e+00   0.000e+00  -274.557  -274.692    -0.135
S(6)             1.989e-01
   SO4-2                  1.442e-01   2.995e-02    -0.841    -1.524    -0.683
   NaSO4-                 4.786e-02   3.508e-02    -1.320    -1.455    -0.135
   CaSO4                  6.829e-03   7.641e-03    -2.166    -2.117     0.049
   SrSO4                  4.472e-06   5.004e-06    -5.349    -5.301     0.049
   HSO4-                  4.563e-08   3.345e-08    -7.341    -7.476    -0.135
   CaHSO4+                7.016e-10   5.143e-10    -9.154    -9.289    -0.135
   BaSO4                  5.280e-10   5.908e-10    -9.277    -9.229     0.049
   MnSO4                  5.636e-11   6.306e-11   -10.249   -10.200     0.049
   FeSO4                  3.809e-11   4.263e-11   -10.419   -10.370     0.049
   KSO4-                  3.222e-15   2.362e-15   -14.492   -14.627    -0.135
   FeSO4+                 1.151e-15   8.437e-16   -14.939   -15.074    -0.135
   Fe(SO4)2-              7.540e-16   5.527e-16   -15.123   -15.257    -0.135
   FeHSO4+                4.391e-18   3.219e-18   -17.357   -17.492    -0.135
   AlSO4+                 3.547e-20   2.600e-20   -19.450   -19.585    -0.135
   Al(SO4)2-              3.359e-20   2.462e-20   -19.474   -19.609    -0.135
   FeHSO4+2               8.990e-23   2.595e-23   -22.046   -22.586    -0.540
   AlHSO4+2               9.173e-29   2.648e-29   -28.037   -28.577    -0.540
   NH4SO4-                1.716e-38   1.258e-38   -37.765   -37.900    -0.135
Si               1.039e-05
   H4SiO4                 1.019e-05   1.140e-05    -4.992    -4.943     0.049
   H3SiO4-                1.996e-07   1.463e-07    -6.700    -6.835    -0.135
   H2SiO4-2               3.001e-12   8.665e-13   -11.523   -12.062    -0.540
Sr               7.789e-06
   SrSO4                  4.472e-06   5.004e-06    -5.349    -5.301     0.049
   Sr+2                   3.304e-06   8.570e-07    -5.481    -6.067    -0.586
   SrHCO3+                1.199e-08   8.318e-09    -7.921    -8.080    -0.159
   SrCO3                  1.266e-09   1.417e-09    -8.897    -8.849     0.049
   SrOH+                  5.553e-12   3.791e-12   -11.255   -11.421    -0.166

------------------------------Saturation indices-------------------------------

	Phase               SI log IAP  log KT

	Al(OH)3(a)       -8.55    2.25   10.80  Al(OH)3
	Albite           -9.91  -27.91  -18.00  NaAlSi3O8
	Alunite         -32.67  -34.07   -1.40  KAl3(SO4)2(OH)6
	Anhydrite        -0.06   -4.42   -4.36  CaSO4
	Anorthite       -18.00  -37.71  -19.71  CaAl2Si2O8
	Aragonite        -0.14   -8.48   -8.34  CaCO3
	Barite           -1.96  -11.93   -9.97  BaSO4
	Ca-Montmorillonite -18.51  -63.54  -45.03  Ca0.165Al2.33Si3.67O10(OH)2
	Calcite              0   -8.48   -8.48  CaCO3
	Celestite        -0.96   -7.59   -6.63  SrSO4
	CH4(g)          -93.25  -96.11   -2.86  CH4
	Chalcedony       -1.38   -4.94   -3.55  SiO2
	CO2(g)           -3.31   -4.78   -1.47  CO2
	Fe(OH)3(a)        1.33    6.22    4.89  Fe(OH)3
	FeS(ppt)        -90.77  -94.68   -3.92  FeS
	Gibbsite         -5.86    2.25    8.11  Al(OH)3
	Goethite          7.22    6.22   -1.00  FeOOH
	Gypsum            0.16   -4.42   -4.58  CaSO4:2H2O
	H2(g)           -28.93  -32.08   -3.15  H2
	H2O(g)           -1.51       0    1.51  H2O
	H2S(g)          -91.53  -92.53   -1.00  H2S
	Halite           -5.10   -3.52    1.58  NaCl
	Hausmannite     -17.25   43.78   61.03  Mn3O4
	Hematite         16.45   12.45   -4.01  Fe2O3
	Jarosite-K      -12.94  -22.15   -9.21  KFe3(SO4)2(OH)6
	K-feldspar      -20.66  -41.23  -20.57  KAlSi3O8
	K-mica          -26.77  -14.07   12.70  KAl3Si3O10(OH)2
	Kaolinite       -12.81   -5.37    7.43  Al2Si2O5(OH)4
	Mackinawite     -90.04  -94.68   -4.65  FeS
	Manganite        -5.93   19.41   25.34  MnOOH
	Melanterite     -10.44  -12.65   -2.21  FeSO4:7H2O
	N2(g)            -0.11   -3.37   -3.26  N2
	NH3(g)          -40.56  -38.79    1.77  NH3
	O2(g)           -25.26  -28.22   -2.96  O2
	Pyrite         -146.74 -165.22  -18.48  FeS2
	Pyrochroite     -10.26    4.94   15.20  Mn(OH)2
	Pyrolusite       -7.50   33.88   41.38  MnO2
	Quartz           -0.95   -4.94   -3.98  SiO2
	Rhodochrosite    -5.38  -16.51  -11.13  MnCO3
	Siderite         -5.79  -16.68  -10.89  FeCO3
	SiO2(a)          -2.22   -4.94   -2.71  SiO2
	Strontianite     -2.38  -11.65   -9.27  SrCO3
	Sulfur          -68.47  -63.59    4.88  S
	Witherite        -7.43  -15.99   -8.56  BaCO3

