Output file:    ex4_ddl.O.chem
Chemistry file: ex4_ddl.chem.dat
Database file:  phast.dat

------------------
Reading data base.
------------------

	SOLUTION_MASTER_SPECIES
	SOLUTION_SPECIES
	PHASES
	EXCHANGE_MASTER_SPECIES
	EXCHANGE_SPECIES
	SURFACE_MASTER_SPECIES
	SURFACE_SPECIES
	RATES
	END
------------------------------------
Reading input data for simulation 1.
------------------------------------

	SURFACE_MASTER_SPECIES
	        Surf    SurfOH
	SURFACE_SPECIES
	        SurfOH = SurfOH
	                log_k   0.0
	        SurfOH  + H+ = SurfOH2+
	                log_k   7.29
	        SurfOH = SurfO- + H+
	                log_k   -8.93
	        SurfOH + AsO4-3 + 3H+ = SurfH2AsO4 + H2O
	                log_k   29.31
	        SurfOH + AsO4-3 + 2H+ = SurfHAsO4- + H2O
	                log_k   23.51
	        SurfOH + AsO4-3 = SurfOHAsO4-3
	                log_k   10.58
	SOLUTION_MASTER_SPECIES
	        As       H3AsO4        -1.0     74.9216         74.9216
	SOLUTION_SPECIES
		H3AsO4 = H2AsO4- + H+
		log_k	-2.3
		delta_h	-7.066	kJ
		H3AsO4 = HAsO4-2 + 2H+
		log_k	-9.46
		delta_h	-3.846	kJ
		H3AsO4 = AsO4-3 + 3H+
		log_k	-21.11
		delta_h	14.354	kJ
	        H3AsO4 = H2AsO4- + H+ 
	        log_k           -2.243
	        delta_h -1.69 kcal
	        H3AsO4 = HAsO4-2 + 2H+ 
	        log_k           -9.001
	        delta_h -0.92 kcal
	        H3AsO4 = AsO4-3 + 3H+
	        log_k           -20.597
	        delta_h 3.43 kcal
	        H3AsO4 = H3AsO4
	        log_k           0.0
	        H3AsO4 = AsO4-3 + 3H+
	        log_k   -20.7
	        H+ + AsO4-3 = HAsO4-2
	        log_k   11.50
	        2H+ + AsO4-3 = H2AsO4-
	        log_k           18.46
	SOLUTION 1 20 x precipitation
	        pH      4.6
	        pe      4.0     O2(g)   -0.7
	        temp    25.
	        units   mmol/kgw
	        Ca      .191625
	        Mg      .035797
	        Na      .122668
	        Cl      .133704
	        C       .01096
	        S       .235153         charge
	END
-------------------------------------------
Beginning of initial solution calculations.
-------------------------------------------

Initial solution 1.	20 x precipitation

-----------------------------Solution composition------------------------------

	Elements           Molality       Moles

	C                 1.096e-05   1.096e-05
	Ca                1.916e-04   1.916e-04
	Cl                1.337e-04   1.337e-04
	Mg                3.580e-05   3.580e-05
	Na                1.227e-04   1.227e-04
	S                 2.351e-04   2.351e-04  Charge balance

----------------------------Description of solution----------------------------

                                       pH  =   4.600    
                                       pe  =  16.005      Equilibrium with O2(g)
                        Activity of water  =   1.000
                           Ionic strength  =   1.035e-03
                       Mass of water (kg)  =   1.000e+00
                 Total alkalinity (eq/kg)  =  -2.630e-05
                       Total CO2 (mol/kg)  =   1.096e-05
                      Temperature (deg C)  =  25.000
                  Electrical balance (eq)  =   7.111e-16
 Percent error, 100*(Cat-|An|)/(Cat+|An|)  =      0
                               Iterations  =   9
                                  Total H  = 1.110125e+02
                                  Total O  = 5.550762e+01

----------------------------Distribution of species----------------------------

                                                   Log       Log         Log 
   Species                 Molality    Activity  Molality  Activity     Gamma

   H+                     2.600e-05   2.512e-05    -4.585    -4.600    -0.015
   OH-                    4.133e-10   3.985e-10    -9.384    -9.400    -0.016
   H2O                    5.551e+01   1.000e+00     1.744         0         0
C(-4)            0.000e+00
   CH4                    0.000e+00   0.000e+00  -145.418  -145.418         0
C(4)             1.096e-05
   CO2                    1.076e-05   1.076e-05    -4.968    -4.968         0
   HCO3-                  1.975e-07   1.906e-07    -6.704    -6.720    -0.015
   CaHCO3+                4.048e-10   3.907e-10    -9.393    -9.408    -0.015
   MgHCO3+                6.905e-11   6.660e-11   -10.161   -10.177    -0.016
   NaHCO3                 1.267e-11   1.267e-11   -10.897   -10.897         0
   CO3-2                  4.105e-13   3.559e-13   -12.387   -12.449    -0.062
   CaCO3                  9.601e-14   9.603e-14   -13.018   -13.018         0
   MgCO3                  1.014e-14   1.014e-14   -13.994   -13.994         0
   NaCO3-                 8.122e-16   7.833e-16   -15.090   -15.106    -0.016
Ca               1.916e-04
   Ca+2                   1.853e-04   1.606e-04    -3.732    -3.794    -0.062
   CaSO4                  6.296e-06   6.297e-06    -5.201    -5.201         0
   CaHSO4+                9.608e-10   9.267e-10    -9.017    -9.033    -0.016
   CaHCO3+                4.048e-10   3.907e-10    -9.393    -9.408    -0.015
   CaOH+                  1.100e-12   1.061e-12   -11.958   -11.974    -0.016
   CaCO3                  9.601e-14   9.603e-14   -13.018   -13.018         0
Cl               1.337e-04
   Cl-                    1.337e-04   1.289e-04    -3.874    -3.890    -0.016
H(0)             0.000e+00
   H2                     0.000e+00   0.000e+00   -44.360   -44.360         0
Mg               3.580e-05
   Mg+2                   3.442e-05   2.986e-05    -4.463    -4.525    -0.062
   MgSO4                  1.375e-06   1.375e-06    -5.862    -5.862         0
   MgHCO3+                6.905e-11   6.660e-11   -10.161   -10.177    -0.016
   MgOH+                  4.475e-12   4.316e-12   -11.349   -11.365    -0.016
   MgCO3                  1.014e-14   1.014e-14   -13.994   -13.994         0
Na               1.227e-04
   Na+                    1.225e-04   1.182e-04    -3.912    -3.927    -0.016
   NaSO4-                 1.207e-07   1.164e-07    -6.918    -6.934    -0.016
   NaHCO3                 1.267e-11   1.267e-11   -10.897   -10.897         0
   NaOH                   3.109e-14   3.109e-14   -13.507   -13.507         0
   NaCO3-                 8.122e-16   7.833e-16   -15.090   -15.106    -0.016
O(0)             4.374e-04
   O2                     2.187e-04   2.188e-04    -3.660    -3.660         0
S(-2)            0.000e+00
   H2S                    0.000e+00   0.000e+00  -137.155  -137.155         0
   HS-                    0.000e+00   0.000e+00  -139.481  -139.497    -0.016
   S-2                    0.000e+00   0.000e+00  -147.752  -147.815    -0.062
S(6)             2.351e-04
   SO4-2                  2.268e-04   1.965e-04    -3.644    -3.707    -0.062
   CaSO4                  6.296e-06   6.297e-06    -5.201    -5.201         0
   MgSO4                  1.375e-06   1.375e-06    -5.862    -5.862         0
   HSO4-                  4.975e-07   4.798e-07    -6.303    -6.319    -0.016
   NaSO4-                 1.207e-07   1.164e-07    -6.918    -6.934    -0.016
   CaHSO4+                9.608e-10   9.267e-10    -9.017    -9.033    -0.016

------------------------------Saturation indices-------------------------------

	Phase               SI log IAP  log KT

	Anhydrite        -3.14   -7.50   -4.36  CaSO4
	Aragonite        -7.91  -16.24   -8.34  CaCO3
	Calcite          -7.76  -16.24   -8.48  CaCO3
	CH4(g)         -142.56 -145.42   -2.86  CH4
	CO2(g)           -3.50   -4.97   -1.47  CO2
	Dolomite        -16.13  -33.22  -17.09  CaMg(CO3)2
	Gypsum           -2.92   -7.50   -4.58  CaSO4:2H2O
	H2(g)           -41.21  -44.36   -3.15  H2
	H2O(g)           -1.51       0    1.51  H2O
	H2S(g)         -136.16 -137.16   -1.00  H2S
	Halite           -9.40   -7.82    1.58  NaCl
	O2(g)            -0.70   -3.66   -2.96  O2
	Sulfur         -100.83  -95.95    4.88  S

------------------
End of simulation.
------------------

------------------------------------
Reading input data for simulation 2.
------------------------------------

	USE solution 1
	EQUILIBRIUM_PHASES 1
	        Dolomite        0.0     1.6
	        Calcite         0.0     0.1
	        CO2(g)          -1.5    100.
	SAVE solution 1
	END
-----------------------------------------
Beginning of batch-reaction calculations.
-----------------------------------------

Reaction step 1.

-------------------------------Phase assemblage--------------------------------

                                                      Moles in assemblage
Phase                  SI log IAP  log KT      Initial       Final       Delta

Calcite                 0   -8.48   -8.48    1.000e-01   9.966e-02  -3.441e-04
CO2(g)              -1.50   -2.97   -1.47    1.000e+02   1.000e+02  -4.066e-03
Dolomite                0  -17.09  -17.09    1.600e+00   1.599e+00  -1.349e-03

-----------------------------Solution composition------------------------------

	Elements           Molality       Moles

	C                 7.119e-03   7.119e-03
	Ca                1.885e-03   1.884e-03
	Cl                1.337e-04   1.337e-04
	Mg                1.385e-03   1.385e-03
	Na                1.227e-04   1.227e-04
	S                 2.351e-04   2.351e-04

----------------------------Description of solution----------------------------

                                       pH  =   7.047      Charge balance
                                       pe  =  13.558      Adjusted to redox equilibrium
                        Activity of water  =   1.000
                           Ionic strength  =   9.629e-03
                       Mass of water (kg)  =   9.999e-01
                 Total alkalinity (eq/kg)  =   6.057e-03
                       Total CO2 (mol/kg)  =   7.119e-03
                      Temperature (deg C)  =  25.000
                  Electrical balance (eq)  =   2.136e-15
 Percent error, 100*(Cat-|An|)/(Cat+|An|)  =      0
                               Iterations  =   9
                                  Total H  = 1.110125e+02
                                  Total O  = 5.552487e+01

----------------------------Distribution of species----------------------------

                                                   Log       Log         Log 
   Species                 Molality    Activity  Molality  Activity     Gamma

   OH-                    1.236e-07   1.115e-07    -6.908    -6.953    -0.045
   H+                     9.814e-08   8.977e-08    -7.008    -7.047    -0.039
   H2O                    5.551e+01   9.998e-01     1.744         0         0
C(-4)            0.000e+00
   CH4                    0.000e+00   0.000e+00  -143.421  -143.420     0.001
C(4)             7.119e-03
   HCO3-                  5.883e-03   5.333e-03    -2.230    -2.273    -0.043
   CO2                    1.074e-03   1.077e-03    -2.969    -2.968     0.001
   CaHCO3+                8.923e-05   8.090e-05    -4.049    -4.092    -0.043
   MgHCO3+                6.082e-05   5.496e-05    -4.216    -4.260    -0.044
   CaCO3                  5.553e-06   5.565e-06    -5.256    -5.255     0.001
   CO3-2                  4.124e-06   2.786e-06    -5.385    -5.555    -0.170
   MgCO3                  2.336e-06   2.341e-06    -5.631    -5.631     0.001
   NaHCO3                 3.310e-07   3.317e-07    -6.480    -6.479     0.001
   NaCO3-                 6.350e-09   5.738e-09    -8.197    -8.241    -0.044
Ca               1.885e-03
   Ca+2                   1.761e-03   1.189e-03    -2.754    -2.925    -0.171
   CaHCO3+                8.923e-05   8.090e-05    -4.049    -4.092    -0.043
   CaSO4                  2.881e-05   2.888e-05    -4.540    -4.539     0.001
   CaCO3                  5.553e-06   5.565e-06    -5.256    -5.255     0.001
   CaOH+                  2.432e-09   2.198e-09    -8.614    -8.658    -0.044
   CaHSO4+                1.681e-11   1.519e-11   -10.775   -10.819    -0.044
Cl               1.337e-04
   Cl-                    1.337e-04   1.206e-04    -3.874    -3.919    -0.045
H(0)             0.000e+00
   H2                     0.000e+00   0.000e+00   -44.361   -44.361     0.001
Mg               1.385e-03
   Mg+2                   1.296e-03   8.807e-04    -2.887    -3.055    -0.168
   MgHCO3+                6.082e-05   5.496e-05    -4.216    -4.260    -0.044
   MgSO4                  2.507e-05   2.513e-05    -4.601    -4.600     0.001
   MgCO3                  2.336e-06   2.341e-06    -5.631    -5.631     0.001
   MgOH+                  3.941e-08   3.561e-08    -7.404    -7.448    -0.044
Na               1.227e-04
   Na+                    1.223e-04   1.106e-04    -3.913    -3.956    -0.044
   NaHCO3                 3.310e-07   3.317e-07    -6.480    -6.479     0.001
   NaSO4-                 7.467e-08   6.747e-08    -7.127    -7.171    -0.044
   NaCO3-                 6.350e-09   5.738e-09    -8.197    -8.241    -0.044
   NaOH                   8.120e-12   8.138e-12   -11.090   -11.089     0.001
O(0)             4.375e-04
   O2                     2.187e-04   2.192e-04    -3.660    -3.659     0.001
S(-2)            0.000e+00
   HS-                    0.000e+00   0.000e+00  -142.108  -142.153    -0.045
   H2S                    0.000e+00   0.000e+00  -142.259  -142.258     0.001
   S-2                    0.000e+00   0.000e+00  -147.852  -148.024    -0.172
S(6)             2.351e-04
   SO4-2                  1.811e-04   1.217e-04    -3.742    -3.915    -0.173
   CaSO4                  2.881e-05   2.888e-05    -4.540    -4.539     0.001
   MgSO4                  2.507e-05   2.513e-05    -4.601    -4.600     0.001
   NaSO4-                 7.467e-08   6.747e-08    -7.127    -7.171    -0.044
   HSO4-                  1.176e-09   1.062e-09    -8.930    -8.974    -0.044
   CaHSO4+                1.681e-11   1.519e-11   -10.775   -10.819    -0.044

------------------------------Saturation indices-------------------------------

	Phase               SI log IAP  log KT

	Anhydrite        -2.48   -6.84   -4.36  CaSO4
	Aragonite        -0.14   -8.48   -8.34  CaCO3
	Calcite              0   -8.48   -8.48  CaCO3
	CH4(g)         -140.56 -143.42   -2.86  CH4
	CO2(g)           -1.50   -2.97   -1.47  CO2
	Dolomite             0  -17.09  -17.09  CaMg(CO3)2
	Gypsum           -2.26   -6.84   -4.58  CaSO4:2H2O
	H2(g)           -41.21  -44.36   -3.15  H2
	H2O(g)           -1.51       0    1.51  H2O
	H2S(g)         -141.26 -142.26   -1.00  H2S
	Halite           -9.46   -7.87    1.58  NaCl
	O2(g)            -0.70   -3.66   -2.96  O2
	Sulfur         -105.93 -101.05    4.88  S

------------------
End of simulation.
------------------

------------------------------------
Reading input data for simulation 3.
------------------------------------

	SOLUTION 2 Brine
	        pH      5.713
	        pe      4.0     O2(g)   -0.7
	        temp    25.
	        units   mol/kgw
	        Ca      .4655
	        Mg      .1609
	        Na      5.402
	        Cl      6.642           charge
	        C       .00396
	        S       .004725
	        As      .01 umol/kgw
	END
-------------------------------------------
Beginning of initial solution calculations.
-------------------------------------------

Initial solution 2.	Brine

-----------------------------Solution composition------------------------------

	Elements           Molality       Moles

	As                1.000e-08   1.000e-08
	C                 3.960e-03   3.960e-03
	Ca                4.655e-01   4.655e-01
	Cl                6.642e+00   6.642e+00  Charge balance
	Mg                1.609e-01   1.609e-01
	Na                5.402e+00   5.402e+00
	S                 4.725e-03   4.725e-03

----------------------------Description of solution----------------------------

                                       pH  =   5.713    
                                       pe  =  14.945      Equilibrium with O2(g)
                        Activity of water  =   0.785
                           Ionic strength  =   7.266e+00
                       Mass of water (kg)  =   1.000e+00
                 Total alkalinity (eq/kg)  =   3.758e-03
                       Total CO2 (mol/kg)  =   3.960e-03
                      Temperature (deg C)  =  25.000
                  Electrical balance (eq)  =   1.027e-12
 Percent error, 100*(Cat-|An|)/(Cat+|An|)  =      0
                               Iterations  =  11
                                  Total H  = 1.110162e+02
                                  Total O  = 5.553688e+01

----------------------------Distribution of species----------------------------

                                                   Log       Log         Log 
   Species                 Molality    Activity  Molality  Activity     Gamma

   H+                     2.755e-06   1.936e-06    -5.560    -5.713    -0.153
   OH-                    8.773e-09   4.056e-09    -8.057    -8.392    -0.335
   H2O                    5.551e+01   7.846e-01     1.744    -0.105         0
As               1.000e-08
   H2AsO4-                9.993e-09   5.476e-08    -8.000    -7.262     0.739
   H3AsO4                 3.458e-12   1.843e-11   -11.461   -10.735     0.727
   HAsO4-2                3.440e-12   3.100e-09   -11.463    -8.509     2.955
   AsO4-3                 1.137e-21   5.063e-15   -20.944   -14.296     6.649
C(-4)            0.000e+00
   CH4                    0.000e+00   0.000e+00  -144.357  -143.631     0.727
C(4)             3.960e-03
   CaHCO3+                3.015e-03   1.745e-03    -2.521    -2.758    -0.238
   HCO3-                  3.336e-04   1.931e-04    -3.477    -3.714    -0.238
   MgHCO3+                2.161e-04   1.184e-03    -3.665    -2.927     0.739
   CO2                    2.010e-04   1.071e-03    -3.697    -2.970     0.727
   NaHCO3                 1.924e-04   1.025e-03    -3.716    -2.989     0.727
   CaCO3                  1.044e-06   5.564e-06    -5.981    -5.255     0.727
   MgCO3                  4.389e-07   2.339e-06    -6.358    -5.631     0.727
   NaCO3-                 1.500e-07   8.221e-07    -6.824    -6.085     0.739
   CO3-2                  4.170e-08   4.676e-09    -7.380    -8.330    -0.950
Ca               4.655e-01
   Ca+2                   4.609e-01   7.084e-01    -0.336    -0.150     0.187
   CaHCO3+                3.015e-03   1.745e-03    -2.521    -2.758    -0.238
   CaSO4                  1.600e-03   8.528e-03    -2.796    -2.069     0.727
   CaCO3                  1.044e-06   5.564e-06    -5.981    -5.255     0.727
   CaHSO4+                1.766e-08   9.674e-08    -7.753    -7.014     0.739
   CaOH+                  8.693e-09   4.763e-08    -8.061    -7.322     0.739
Cl               6.642e+00
   Cl-                    6.642e+00   3.946e+00     0.822     0.596    -0.226
H(0)             0.000e+00
   H2                     0.000e+00   0.000e+00   -45.192   -44.465     0.727
Mg               1.609e-01
   Mg+2                   1.593e-01   5.242e-01    -0.798    -0.280     0.517
   MgSO4                  1.391e-03   7.415e-03    -2.857    -2.130     0.727
   MgHCO3+                2.161e-04   1.184e-03    -3.665    -2.927     0.739
   MgCO3                  4.389e-07   2.339e-06    -6.358    -5.631     0.727
   MgOH+                  1.407e-07   7.712e-07    -6.852    -6.113     0.739
Na               5.402e+00
   Na+                    5.401e+00   9.442e+00     0.732     0.975     0.243
   NaSO4-                 5.211e-04   2.855e-03    -3.283    -2.544     0.739
   NaHCO3                 1.924e-04   1.025e-03    -3.716    -2.989     0.727
   NaCO3-                 1.500e-07   8.221e-07    -6.824    -6.085     0.739
   NaOH                   4.743e-09   2.528e-08    -8.324    -7.597     0.727
O(0)             8.211e-05
   O2                     4.106e-05   2.188e-04    -4.387    -3.660     0.727
S(-2)            0.000e+00
   H2S                    0.000e+00   0.000e+00  -140.620  -139.894     0.727
   HS-                    0.000e+00   0.000e+00  -140.787  -141.122    -0.335
   S-2                    0.000e+00   0.000e+00  -147.315  -148.327    -1.012
S(6)             4.725e-03
   CaSO4                  1.600e-03   8.528e-03    -2.796    -2.069     0.727
   MgSO4                  1.391e-03   7.415e-03    -2.857    -2.130     0.727
   SO4-2                  1.212e-03   6.034e-05    -2.916    -4.219    -1.303
   NaSO4-                 5.211e-04   2.855e-03    -3.283    -2.544     0.739
   CaHSO4+                1.766e-08   9.674e-08    -7.753    -7.014     0.739
   HSO4-                  2.073e-09   1.136e-08    -8.683    -7.945     0.739

------------------------------Saturation indices-------------------------------

	Phase               SI log IAP  log KT

	Anhydrite        -0.01   -4.37   -4.36  CaSO4
	Aragonite        -0.14   -8.48   -8.34  CaCO3
	Calcite              0   -8.48   -8.48  CaCO3
	CH4(g)         -140.77 -143.63   -2.86  CH4
	CO2(g)           -1.50   -2.97   -1.47  CO2
	Dolomite             0  -17.09  -17.09  CaMg(CO3)2
	Gypsum               0   -4.58   -4.58  CaSO4:2H2O
	H2(g)           -41.32  -44.47   -3.15  H2
	H2O(g)           -1.62   -0.11    1.51  H2O
	H2S(g)         -138.90 -139.89   -1.00  H2S
	Halite           -0.01    1.57    1.58  NaCl
	O2(g)            -0.70   -3.66   -2.96  O2
	Sulfur         -103.46  -98.58    4.88  S

------------------
End of simulation.
------------------

------------------------------------
Reading input data for simulation 4.
------------------------------------

	USE solution 2
	EQUILIBRIUM_PHASES 2
	        Dolomite        0.0     1.6
	        Calcite         0.0     0.1
	SAVE solution 2
	END
-----------------------------------------
Beginning of batch-reaction calculations.
-----------------------------------------

Reaction step 1.

-------------------------------Phase assemblage--------------------------------

                                                      Moles in assemblage
Phase                  SI log IAP  log KT      Initial       Final       Delta

Calcite                 0   -8.48   -8.48    1.000e-01   1.002e-01   2.185e-04
Dolomite                0  -17.09  -17.09    1.600e+00   1.600e+00  -1.093e-04

-----------------------------Solution composition------------------------------

	Elements           Molality       Moles

	As                1.000e-08   1.000e-08
	C                 3.960e-03   3.960e-03
	Ca                4.654e-01   4.654e-01
	Cl                6.642e+00   6.642e+00
	Mg                1.610e-01   1.610e-01
	Na                5.402e+00   5.402e+00
	S                 4.725e-03   4.725e-03

----------------------------Description of solution----------------------------

                                       pH  =   5.713      Charge balance
                                       pe  =  14.945      Adjusted to redox equilibrium
                        Activity of water  =   0.785
                           Ionic strength  =   7.266e+00
                       Mass of water (kg)  =   1.000e+00
                 Total alkalinity (eq/kg)  =   3.758e-03
                       Total CO2 (mol/kg)  =   3.960e-03
                      Temperature (deg C)  =  25.000
                  Electrical balance (eq)  =   1.033e-12
 Percent error, 100*(Cat-|An|)/(Cat+|An|)  =      0
                               Iterations  =   2
                                  Total H  = 1.110162e+02
                                  Total O  = 5.553688e+01

----------------------------Distribution of species----------------------------

                                                   Log       Log         Log 
   Species                 Molality    Activity  Molality  Activity     Gamma

   H+                     2.754e-06   1.936e-06    -5.560    -5.713    -0.153
   OH-                    8.776e-09   4.057e-09    -8.057    -8.392    -0.335
   H2O                    5.551e+01   7.846e-01     1.744    -0.105         0
As               1.000e-08
   H2AsO4-                9.993e-09   5.476e-08    -8.000    -7.262     0.739
   H3AsO4                 3.457e-12   1.842e-11   -11.461   -10.735     0.727
   HAsO4-2                3.441e-12   3.101e-09   -11.463    -8.508     2.955
   AsO4-3                 1.138e-21   5.066e-15   -20.944   -14.295     6.649
C(-4)            0.000e+00
   CH4                    0.000e+00   0.000e+00  -144.357  -143.631     0.727
C(4)             3.960e-03
   CaHCO3+                3.015e-03   1.745e-03    -2.521    -2.758    -0.238
   HCO3-                  3.337e-04   1.931e-04    -3.477    -3.714    -0.238
   MgHCO3+                2.163e-04   1.185e-03    -3.665    -2.926     0.739
   CO2                    2.010e-04   1.071e-03    -3.697    -2.970     0.727
   NaHCO3                 1.924e-04   1.025e-03    -3.716    -2.989     0.727
   CaCO3                  1.044e-06   5.565e-06    -5.981    -5.255     0.727
   MgCO3                  4.394e-07   2.341e-06    -6.357    -5.631     0.727
   NaCO3-                 1.501e-07   8.224e-07    -6.824    -6.085     0.739
   CO3-2                  4.171e-08   4.678e-09    -7.380    -8.330    -0.950
Ca               4.654e-01
   Ca+2                   4.608e-01   7.082e-01    -0.337    -0.150     0.187
   CaHCO3+                3.015e-03   1.745e-03    -2.521    -2.758    -0.238
   CaSO4                  1.600e-03   8.525e-03    -2.796    -2.069     0.727
   CaCO3                  1.044e-06   5.565e-06    -5.981    -5.255     0.727
   CaHSO4+                1.764e-08   9.668e-08    -7.753    -7.015     0.739
   CaOH+                  8.693e-09   4.763e-08    -8.061    -7.322     0.739
Cl               6.642e+00
   Cl-                    6.642e+00   3.946e+00     0.822     0.596    -0.226
H(0)             0.000e+00
   H2                     0.000e+00   0.000e+00   -45.192   -44.465     0.727
Mg               1.610e-01
   Mg+2                   1.594e-01   5.246e-01    -0.798    -0.280     0.517
   MgSO4                  1.392e-03   7.419e-03    -2.856    -2.130     0.727
   MgHCO3+                2.163e-04   1.185e-03    -3.665    -2.926     0.739
   MgCO3                  4.394e-07   2.341e-06    -6.357    -5.631     0.727
   MgOH+                  1.409e-07   7.719e-07    -6.851    -6.112     0.739
Na               5.402e+00
   Na+                    5.401e+00   9.442e+00     0.732     0.975     0.243
   NaSO4-                 5.210e-04   2.855e-03    -3.283    -2.544     0.739
   NaHCO3                 1.924e-04   1.025e-03    -3.716    -2.989     0.727
   NaCO3-                 1.501e-07   8.224e-07    -6.824    -6.085     0.739
   NaOH                   4.744e-09   2.528e-08    -8.324    -7.597     0.727
O(0)             8.211e-05
   O2                     4.106e-05   2.188e-04    -4.387    -3.660     0.727
S(-2)            0.000e+00
   H2S                    0.000e+00   0.000e+00  -140.621  -139.894     0.727
   HS-                    0.000e+00   0.000e+00  -140.788  -141.123    -0.335
   S-2                    0.000e+00   0.000e+00  -147.315  -148.327    -1.012
S(6)             4.725e-03
   CaSO4                  1.600e-03   8.525e-03    -2.796    -2.069     0.727
   MgSO4                  1.392e-03   7.419e-03    -2.856    -2.130     0.727
   SO4-2                  1.212e-03   6.033e-05    -2.917    -4.219    -1.303
   NaSO4-                 5.210e-04   2.855e-03    -3.283    -2.544     0.739
   CaHSO4+                1.764e-08   9.668e-08    -7.753    -7.015     0.739
   HSO4-                  2.072e-09   1.136e-08    -8.684    -7.945     0.739

------------------------------Saturation indices-------------------------------

	Phase               SI log IAP  log KT

	Anhydrite        -0.01   -4.37   -4.36  CaSO4
	Aragonite        -0.14   -8.48   -8.34  CaCO3
	Calcite              0   -8.48   -8.48  CaCO3
	CH4(g)         -140.77 -143.63   -2.86  CH4
	CO2(g)           -1.50   -2.97   -1.47  CO2
	Dolomite             0  -17.09  -17.09  CaMg(CO3)2
	Gypsum               0   -4.58   -4.58  CaSO4:2H2O
	H2(g)           -41.32  -44.47   -3.15  H2
	H2O(g)           -1.62   -0.11    1.51  H2O
	H2S(g)         -138.90 -139.89   -1.00  H2S
	Halite           -0.01    1.57    1.58  NaCl
	O2(g)            -0.70   -3.66   -2.96  O2
	Sulfur         -103.46  -98.58    4.88  S

------------------
End of simulation.
------------------

------------------------------------
Reading input data for simulation 5.
------------------------------------

	EXCHANGE 2
	        equilibrate with solution 2
	        X       0.5
	SURFACE 2
		diffuse_layer
	        equilibrate solution 2
	        SurfOH          0.14     600.    30.
	END
-------------------------------------------------------
Beginning of initial exchange-composition calculations.
-------------------------------------------------------

Exchange 2.	

X                5.000e-01 mol

	                               Equiv-    Equivalent      Log 
	Species             Moles      alents      Fraction     Gamma

	NaX               4.507e-01   4.507e-01   9.014e-01     0.243
	CaX2              2.024e-02   4.048e-02   8.096e-02     0.187
	MgX2              4.418e-03   8.836e-03   1.767e-02     0.517

------------------------------------------------------
Beginning of initial surface-composition calculations.
------------------------------------------------------

Surface 2.	

Surf          
	 -2.721e-09  Surface + diffuse layer charge, eq
	  8.247e-02  Surface charge, eq
	  4.421e-01  sigma, C/m**2
	  6.003e-02  psi, V
	 -2.337e+00  -F*psi/RT
	  9.665e-02  exp(-F*psi/RT)
	  6.000e+02  specific area, m**2/g
	  1.800e+04  m**2 for   3.000e+01 g

	Water in diffuse layer: 1.800e-01 kg, 100.0% of total DDL-water.

	Total moles in diffuse layer (excluding water)

	Element       	     Moles
	As            	  1.8929e-09
	C             	  7.0665e-04
	Ca            	  8.1826e-02
	Cl            	  1.2571e+00
	H             	  6.7068e-04
	Mg            	  2.8311e-02
	Na            	  9.5689e-01
	O             	  5.7843e-03
	S             	  9.2143e-04

Surf          
	  1.400e-01  moles
	                                   Mole                     Log
	Species               Moles    Fraction    Molality    Molality

	SurfOH2+          1.030e-01       0.736   1.030e-01      -0.987
	SurfOH            2.823e-02       0.202   2.823e-02      -1.549
	SurfOHAsO4-3      6.024e-03       0.043   6.024e-03      -2.220
	SurfHAsO4-        2.288e-03       0.016   2.288e-03      -2.641
	SurfH2AsO4        2.701e-04       0.002   2.701e-04      -3.569
	SurfO-            1.773e-04       0.001   1.773e-04      -3.751

------------------
End of simulation.
------------------

------------------------------------
Reading input data for simulation 6.
------------------------------------

	SELECTED_OUTPUT
	        file ex4.dummy.sel
	        reset false
	        ph
	USER_PUNCH
	heading        Ca      Mg      Na      Cl      C(4)    SO4     As
	10 PUNCH TOT("Ca")*1e3*40.08
	20 PUNCH TOT("Mg")*1e3*24.312
	30 PUNCH TOT("Na")*1e3*23.
	40 PUNCH TOT("Cl")*1e3*35.45
	50 PUNCH TOT("C(4)")*1e3*61.   # as HCO3-
	60 PUNCH TOT("S(6)")*1e3*96.   # as SO4
	70 PUNCH TOT("As")*1e6*74.296  # ug/L
	END
------------------
End of simulation.
------------------

------------------------------------
Reading input data for simulation 7.
------------------------------------

List of Components:
	1	H
	2	O
	3	As
	4	C
	5	Ca
	6	Cl
	7	Mg
	8	Na
	9	S
	10	Charge
List of master species:
	1	As
	2	C(-4)
	3	C(4)
	4	Ca
	5	Cl
	6	Mg
	7	Na
	8	S(-2)
	9	S(6)
Time 10000. Cell 1: x=              0	y=              0	z=              0
Using solution 1.
Using exchange 1
Using surface 1.
Using pure phase assemblage 1.

-------------------------------Phase assemblage--------------------------------

                                                      Moles in assemblage
Phase                  SI log IAP  log KT      Initial       Final       Delta

Calcite                 0   -8.48   -8.48    1.004e-01   1.006e-01   2.441e-04
Dolomite                0  -17.09  -17.09    1.600e+00   1.600e+00  -1.128e-04

------------------------------Surface composition------------------------------

Surf          
	  7.321e-16  Surface + diffuse layer charge, eq
	  8.252e-02  Surface charge, eq
	  4.424e-01  sigma, C/m**2
	  6.038e-02  psi, V
	 -2.350e+00  -F*psi/RT
	  9.533e-02  exp(-F*psi/RT)
	  6.000e+02  specific area, m**2/g
	  1.800e+04  m**2 for   3.000e+01 g

	Water in diffuse layer: 1.800e-01 kg, 100.0% of total DDL-water.

	Total moles in diffuse layer (excluding water)

	Element       	     Moles
	As            	  1.9512e-09
	C             	  7.2819e-04
	Ca            	  8.0302e-02
	Cl            	  1.2391e+00
	H             	  6.8799e-04
	Mg            	  2.8040e-02
	Na            	  9.4240e-01
	O             	  5.8007e-03
	S             	  9.1019e-04

Surf          
	  1.400e-01  moles
	                                   Mole                     Log
	Species               Moles    Fraction    Molality    Molality

	SurfOH2+          1.031e-01       0.736   1.031e-01      -0.987
	SurfOH            2.819e-02       0.201   2.819e-02      -1.550
	SurfOHAsO4-3      6.023e-03       0.043   6.023e-03      -2.220
	SurfHAsO4-        2.288e-03       0.016   2.288e-03      -2.641
	SurfH2AsO4        2.706e-04       0.002   2.706e-04      -3.568
	SurfO-            1.766e-04       0.001   1.766e-04      -3.753

-----------------------------Exchange composition------------------------------

X                5.000e-01 mol

	                               Equiv-    Equivalent      Log 
	Species             Moles      alents      Fraction     Gamma

	NaX               4.501e-01   4.501e-01   9.003e-01     0.235
	CaX2              2.043e-02   4.085e-02   8.170e-02     0.170
	MgX2              4.500e-03   9.001e-03   1.800e-02     0.496

-----------------------------Solution composition------------------------------

	Elements           Molality       Moles

	As                1.030e-08   1.030e-08
	C                 4.080e-03   4.080e-03
	Ca                4.568e-01   4.568e-01
	Cl                6.541e+00   6.541e+00
	Mg                1.595e-01   1.595e-01
	Na                5.321e+00   5.321e+00
	S                 4.654e-03   4.654e-03

----------------------------Description of solution----------------------------

                                       pH  =   5.706      Charge balance
                                       pe  =  14.955      Adjusted to redox equilibrium
                        Activity of water  =   0.788
                           Ionic strength  =   7.155e+00
                       Mass of water (kg)  =   1.000e+00
                 Total alkalinity (eq/kg)  =   3.854e-03
                       Total CO2 (mol/kg)  =   4.080e-03
                      Temperature (deg C)  =  25.000
                  Electrical balance (eq)  =  -2.659e-09
 Percent error, 100*(Cat-|An|)/(Cat+|An|)  =      0
                               Iterations  =   1
                                  Total H  = 1.110163e+02
                                  Total O  = 5.553693e+01

----------------------------Distribution of species----------------------------

                                                   Log       Log         Log 
   Species                 Molality    Activity  Molality  Activity     Gamma

   H+                     2.798e-06   1.967e-06    -5.553    -5.706    -0.153
   OH-                    8.661e-09   4.010e-09    -8.062    -8.397    -0.334
   H2O                    5.551e+01   7.878e-01     1.744    -0.104         0
As               1.030e-08
   H2AsO4-                1.029e-08   5.433e-08    -7.988    -7.265     0.723
   HAsO4-2                3.900e-12   3.029e-09   -11.409    -8.519     2.890
   H3AsO4                 3.575e-12   1.857e-11   -11.447   -10.731     0.716
   AsO4-3                 1.530e-21   4.869e-15   -20.815   -14.313     6.503
C(-4)            0.000e+00
   CH4                    0.000e+00   0.000e+00  -144.339  -143.623     0.716
C(4)             4.080e-03
   CaHCO3+                3.061e-03   1.773e-03    -2.514    -2.751    -0.237
   HCO3-                  3.589e-04   2.078e-04    -3.445    -3.682    -0.237
   MgHCO3+                2.281e-04   1.204e-03    -3.642    -2.919     0.723
   CO2                    2.246e-04   1.166e-03    -3.649    -2.933     0.716
   NaHCO3                 2.055e-04   1.068e-03    -3.687    -2.972     0.716
   CaCO3                  1.071e-06   5.565e-06    -5.970    -5.255     0.716
   MgCO3                  4.508e-07   2.341e-06    -6.346    -5.631     0.716
   NaCO3-                 1.597e-07   8.428e-07    -6.797    -6.074     0.723
   CO3-2                  4.406e-08   4.955e-09    -7.356    -8.305    -0.949
Ca               4.568e-01
   Ca+2                   4.522e-01   6.685e-01    -0.345    -0.175     0.170
   CaHCO3+                3.061e-03   1.773e-03    -2.514    -2.751    -0.237
   CaSO4                  1.562e-03   8.112e-03    -2.806    -2.091     0.716
   CaCO3                  1.071e-06   5.565e-06    -5.970    -5.255     0.716
   CaHSO4+                1.771e-08   9.348e-08    -7.752    -7.029     0.723
   CaOH+                  8.419e-09   4.444e-08    -8.075    -7.352     0.723
Cl               6.541e+00
   Cl-                    6.541e+00   3.877e+00     0.816     0.589    -0.227
H(0)             0.000e+00
   H2                     0.000e+00   0.000e+00   -45.187   -44.472     0.716
Mg               1.595e-01
   Mg+2                   1.579e-01   4.952e-01    -0.802    -0.305     0.496
   MgSO4                  1.359e-03   7.060e-03    -2.867    -2.151     0.716
   MgHCO3+                2.281e-04   1.204e-03    -3.642    -2.919     0.723
   MgCO3                  4.508e-07   2.341e-06    -6.346    -5.631     0.716
   MgOH+                  1.364e-07   7.202e-07    -6.865    -6.143     0.723
Na               5.321e+00
   Na+                    5.320e+00   9.135e+00     0.726     0.961     0.235
   NaSO4-                 5.275e-04   2.784e-03    -3.278    -2.555     0.723
   NaHCO3                 2.055e-04   1.068e-03    -3.687    -2.972     0.716
   NaCO3-                 1.597e-07   8.428e-07    -6.797    -6.074     0.723
   NaOH                   4.654e-09   2.418e-08    -8.332    -7.617     0.716
O(0)             8.751e-05
   O2                     4.375e-05   2.273e-04    -4.359    -3.643     0.716
S(-2)            0.000e+00
   H2S                    0.000e+00   0.000e+00  -140.625  -139.910     0.716
   HS-                    0.000e+00   0.000e+00  -140.811  -141.145    -0.334
   S-2                    0.000e+00   0.000e+00  -147.346  -148.357    -1.011
S(6)             4.654e-03
   CaSO4                  1.562e-03   8.112e-03    -2.806    -2.091     0.716
   MgSO4                  1.359e-03   7.060e-03    -2.867    -2.151     0.716
   SO4-2                  1.205e-03   6.082e-05    -2.919    -4.216    -1.297
   NaSO4-                 5.275e-04   2.784e-03    -3.278    -2.555     0.723
   CaHSO4+                1.771e-08   9.348e-08    -7.752    -7.029     0.723
   HSO4-                  2.203e-09   1.163e-08    -8.657    -7.934     0.723

------------------------------Saturation indices-------------------------------

	Phase               SI log IAP  log KT

	Anhydrite        -0.03   -4.39   -4.36  CaSO4
	Aragonite        -0.14   -8.48   -8.34  CaCO3
	Calcite              0   -8.48   -8.48  CaCO3
	CH4(g)         -140.76 -143.62   -2.86  CH4
	CO2(g)           -1.47   -2.93   -1.47  CO2
	Dolomite             0  -17.09  -17.09  CaMg(CO3)2
	Gypsum           -0.02   -4.60   -4.58  CaSO4:2H2O
	H2(g)           -41.32  -44.47   -3.15  H2
	H2O(g)           -1.61   -0.10    1.51  H2O
	H2S(g)         -138.91 -139.91   -1.00  H2S
	Halite           -0.03    1.55    1.58  NaCl
	O2(g)            -0.68   -3.64   -2.96  O2
	Sulfur         -103.47  -98.59    4.88  S

Time 10000. Cell 4: x=          18000	y=              0	z=              0
Using solution 4.
Using exchange 4
Using surface 4.
Using pure phase assemblage 4.

-------------------------------Phase assemblage--------------------------------

                                                      Moles in assemblage
Phase                  SI log IAP  log KT      Initial       Final       Delta

Calcite                 0   -8.48   -8.48    1.312e-01   1.373e-01   6.060e-03
Dolomite                0  -17.09  -17.09    1.583e+00   1.579e+00  -3.983e-03

------------------------------Surface composition------------------------------

Surf          
	  1.492e-16  Surface + diffuse layer charge, eq
	  7.709e-02  Surface charge, eq
	  4.133e-01  sigma, C/m**2
	  7.042e-02  psi, V
	 -2.741e+00  -F*psi/RT
	  6.450e-02  exp(-F*psi/RT)
	  6.000e+02  specific area, m**2/g
	  1.800e+04  m**2 for   3.000e+01 g

	Water in diffuse layer: 1.800e-01 kg, 100.0% of total DDL-water.

	Total moles in diffuse layer (excluding water)

	Element       	     Moles
	As            	  2.8532e-09
	C             	  2.2218e-03
	Ca            	  3.9566e-02
	Cl            	  7.1073e-01
	H             	  1.5093e-03
	Mg            	  1.8144e-02
	Na            	  5.2092e-01
	O             	  8.3907e-03
	S             	  5.9841e-04

Surf          
	  1.400e-01  moles
	                                   Mole                     Log
	Species               Moles    Fraction    Molality    Molality

	SurfOH2+          9.926e-02       0.709   9.925e-02      -1.003
	SurfOH            3.192e-02       0.228   3.192e-02      -1.496
	SurfOHAsO4-3      6.758e-03       0.048   6.757e-03      -2.170
	SurfHAsO4-        1.657e-03       0.012   1.657e-03      -2.781
	SurfO-            2.352e-04       0.002   2.352e-04      -3.629
	SurfH2AsO4        1.667e-04       0.001   1.667e-04      -3.778

-----------------------------Exchange composition------------------------------

X                5.000e-01 mol

	                               Equiv-    Equivalent      Log 
	Species             Moles      alents      Fraction     Gamma

	NaX               4.251e-01   4.251e-01   8.502e-01     0.016
	CaX2              2.900e-02   5.800e-02   1.160e-01    -0.299
	MgX2              8.442e-03   1.688e-02   3.377e-02    -0.093

-----------------------------Solution composition------------------------------

	Elements           Molality       Moles

	As                1.445e-08   1.445e-08
	C                 1.221e-02   1.221e-02
	Ca                2.274e-01   2.274e-01
	Cl                3.613e+00   3.613e+00
	Mg                1.043e-01   1.043e-01
	Na                2.963e+00   2.963e+00
	S                 2.627e-03   2.627e-03

----------------------------Description of solution----------------------------

                                       pH  =   5.607      Charge balance
                                       pe  =  15.061      Adjusted to redox equilibrium
                        Activity of water  =   0.882
                           Ionic strength  =   3.945e+00
                       Mass of water (kg)  =   1.000e+00
                 Total alkalinity (eq/kg)  =   8.251e-03
                       Total CO2 (mol/kg)  =   1.221e-02
                      Temperature (deg C)  =  25.000
                  Electrical balance (eq)  =  -1.226e-09
 Percent error, 100*(Cat-|An|)/(Cat+|An|)  =      0
                               Iterations  =   1
                                  Total H  = 1.110268e+02
                                  Total O  = 5.555268e+01

----------------------------Distribution of species----------------------------

                                                   Log       Log         Log 
   Species                 Molality    Activity  Molality  Activity     Gamma

   H+                     3.470e-06   2.472e-06    -5.460    -5.607    -0.147
   OH-                    7.265e-09   3.573e-09    -8.139    -8.447    -0.308
   H2O                    5.551e+01   8.824e-01     1.744    -0.054         0
As               1.445e-08
   H2AsO4-                1.434e-08   2.633e-08    -7.844    -7.580     0.264
   HAsO4-2                1.027e-10   1.168e-09    -9.989    -8.933     1.056
   H3AsO4                 4.561e-12   1.131e-11   -11.341   -10.946     0.394
   AsO4-3                 6.286e-18   1.494e-15   -17.202   -14.826     2.376
C(-4)            0.000e+00
   CH4                    0.000e+00   0.000e+00  -143.244  -142.850     0.394
C(4)             1.221e-02
   CO2                    3.957e-03   9.814e-03    -2.403    -2.008     0.394
   CaHCO3+                3.730e-03   2.228e-03    -2.428    -2.652    -0.224
   HCO3-                  2.608e-03   1.558e-03    -2.584    -2.807    -0.224
   NaHCO3                 1.084e-03   2.689e-03    -2.965    -2.570     0.394
   MgHCO3+                8.241e-04   1.514e-03    -3.084    -2.820     0.264
   CaCO3                  2.244e-06   5.565e-06    -5.649    -5.255     0.394
   MgCO3                  9.441e-07   2.341e-06    -6.025    -5.631     0.394
   NaCO3-                 9.198e-07   1.689e-06    -6.036    -5.772     0.264
   CO3-2                  2.320e-07   2.955e-08    -6.634    -7.529    -0.895
Ca               2.274e-01
   Ca+2                   2.230e-01   1.121e-01    -0.652    -0.950    -0.299
   CaHCO3+                3.730e-03   2.228e-03    -2.428    -2.652    -0.224
   CaSO4                  6.225e-04   1.544e-03    -3.206    -2.811     0.394
   CaCO3                  2.244e-06   5.565e-06    -5.649    -5.255     0.394
   CaHSO4+                1.218e-08   2.236e-08    -7.914    -7.651     0.264
   CaOH+                  3.615e-09   6.639e-09    -8.442    -8.178     0.264
Cl               3.613e+00
   Cl-                    3.613e+00   2.036e+00     0.558     0.309    -0.249
H(0)             0.000e+00
   H2                     0.000e+00   0.000e+00   -44.880   -44.485     0.394
Mg               1.043e-01
   Mg+2                   1.029e-01   8.302e-02    -0.988    -1.081    -0.093
   MgHCO3+                8.241e-04   1.514e-03    -3.084    -2.820     0.264
   MgSO4                  5.418e-04   1.344e-03    -3.266    -2.872     0.394
   MgCO3                  9.441e-07   2.341e-06    -6.025    -5.631     0.394
   MgOH+                  5.859e-08   1.076e-07    -7.232    -6.968     0.264
Na               2.963e+00
   Na+                    2.962e+00   3.069e+00     0.472     0.487     0.016
   NaHCO3                 1.084e-03   2.689e-03    -2.965    -2.570     0.394
   NaSO4-                 5.783e-04   1.062e-03    -3.238    -2.974     0.264
   NaCO3-                 9.198e-07   1.689e-06    -6.036    -5.772     0.264
   NaOH                   2.918e-09   7.238e-09    -8.535    -8.140     0.394
O(0)             2.444e-04
   O2                     1.222e-04   3.031e-04    -3.913    -3.518     0.394
S(-2)            0.000e+00
   H2S                    0.000e+00   0.000e+00  -140.301  -139.906     0.394
   HS-                    0.000e+00   0.000e+00  -140.933  -141.241    -0.308
   S-2                    0.000e+00   0.000e+00  -147.602  -148.552    -0.950
S(6)             2.627e-03
   SO4-2                  8.843e-04   6.904e-05    -3.053    -4.161    -1.108
   CaSO4                  6.225e-04   1.544e-03    -3.206    -2.811     0.394
   NaSO4-                 5.783e-04   1.062e-03    -3.238    -2.974     0.264
   MgSO4                  5.418e-04   1.344e-03    -3.266    -2.872     0.394
   CaHSO4+                1.218e-08   2.236e-08    -7.914    -7.651     0.264
   HSO4-                  9.036e-09   1.659e-08    -8.044    -7.780     0.264

------------------------------Saturation indices-------------------------------

	Phase               SI log IAP  log KT

	Anhydrite        -0.75   -5.11   -4.36  CaSO4
	Aragonite        -0.14   -8.48   -8.34  CaCO3
	Calcite              0   -8.48   -8.48  CaCO3
	CH4(g)         -139.99 -142.85   -2.86  CH4
	CO2(g)           -0.54   -2.01   -1.47  CO2
	Dolomite             0  -17.09  -17.09  CaMg(CO3)2
	Gypsum           -0.64   -5.22   -4.58  CaSO4:2H2O
	H2(g)           -41.34  -44.49   -3.15  H2
	H2O(g)           -1.56   -0.05    1.51  H2O
	H2S(g)         -138.91 -139.91   -1.00  H2S
	Halite           -0.79    0.80    1.58  NaCl
	O2(g)            -0.56   -3.52   -2.96  O2
	Sulfur         -103.45  -98.57    4.88  S

Time 10000. Cell 7: x=          36000	y=              0	z=              0
Using solution 7.
Using exchange 7
Using surface 7.
Using pure phase assemblage 7.

-------------------------------Phase assemblage--------------------------------

                                                      Moles in assemblage
Phase                  SI log IAP  log KT      Initial       Final       Delta

Calcite                 0   -8.48   -8.48    1.575e-01   1.558e-01  -1.729e-03
Dolomite                0  -17.09  -17.09    1.558e+00   1.555e+00  -3.028e-03

------------------------------Surface composition------------------------------

Surf          
	  5.482e-16  Surface + diffuse layer charge, eq
	  2.934e-02  Surface charge, eq
	  1.573e-01  sigma, C/m**2
	  6.954e-02  psi, V
	 -2.707e+00  -F*psi/RT
	  6.675e-02  exp(-F*psi/RT)
	  6.000e+02  specific area, m**2/g
	  1.800e+04  m**2 for   3.000e+01 g

	Water in diffuse layer: 1.800e-01 kg, 100.0% of total DDL-water.

	Total moles in diffuse layer (excluding water)

	Element       	     Moles
	As            	  5.8520e-10
	C             	  4.6641e-03
	Ca            	  3.6964e-03
	Cl            	  1.1790e-01
	H             	  2.9688e-03
	Mg            	  2.4033e-03
	Na            	  7.9775e-02
	O             	  1.3247e-02
	S             	  2.1804e-04

Surf          
	  1.400e-01  moles
	                                   Mole                     Log
	Species               Moles    Fraction    Molality    Molality

	SurfOH            7.237e-02       0.517   7.236e-02      -1.140
	SurfOH2+          5.694e-02       0.407   5.693e-02      -1.245
	SurfOHAsO4-3      8.459e-03       0.060   8.458e-03      -2.073
	SurfO-            2.107e-03       0.015   2.107e-03      -2.676
	SurfHAsO4-        1.194e-04       0.001   1.194e-04      -3.923
	SurfH2AsO4        3.039e-06           0   3.039e-06      -5.517

-----------------------------Exchange composition------------------------------

X                5.000e-01 mol

	                               Equiv-    Equivalent      Log 
	Species             Moles      alents      Fraction     Gamma

	NaX               3.209e-01   3.209e-01   6.418e-01    -0.150
	CaX2              6.349e-02   1.270e-01   2.540e-01    -0.594
	MgX2              2.605e-02   5.211e-02   1.042e-01    -0.537

-----------------------------Solution composition------------------------------

	Elements           Molality       Moles

	As                1.892e-09   1.893e-09
	C                 2.332e-02   2.333e-02
	Ca                2.246e-02   2.246e-02
	Cl                5.305e-01   5.306e-01
	Mg                1.460e-02   1.460e-02
	Na                4.715e-01   4.716e-01
	S                 5.879e-04   5.880e-04

----------------------------Description of solution----------------------------

                                       pH  =   6.219      Charge balance
                                       pe  =  14.398      Adjusted to redox equilibrium
                        Activity of water  =   0.982
                           Ionic strength  =   5.786e-01
                       Mass of water (kg)  =   1.000e+00
                 Total alkalinity (eq/kg)  =   1.394e-02
                       Total CO2 (mol/kg)  =   2.332e-02
                      Temperature (deg C)  =  25.000
                  Electrical balance (eq)  =  -1.012e-10
 Percent error, 100*(Cat-|An|)/(Cat+|An|)  =      0
                               Iterations  =   1
                                  Total H  = 1.110423e+02
                                  Total O  = 5.557756e+01

----------------------------Distribution of species----------------------------

                                                   Log       Log         Log 
   Species                 Molality    Activity  Molality  Activity     Gamma

   H+                     7.956e-07   6.045e-07    -6.099    -6.219    -0.119
   OH-                    2.617e-08   1.626e-08    -7.582    -7.789    -0.207
   H2O                    5.551e+01   9.820e-01     1.744    -0.008         0
As               1.892e-09
   H2AsO4-                1.305e-09   9.636e-10    -8.884    -9.016    -0.132
   HAsO4-2                5.875e-10   1.748e-10    -9.231    -9.758    -0.527
   H3AsO4                 8.860e-14   1.012e-13   -13.053   -12.995     0.058
   AsO4-3                 1.399e-14   9.143e-16   -13.854   -15.039    -1.185
C(-4)            0.000e+00
   CH4                    0.000e+00   0.000e+00  -142.552  -142.494     0.058
C(4)             2.332e-02
   HCO3-                  1.134e-02   7.758e-03    -1.945    -2.110    -0.165
   CO2                    9.399e-03   1.074e-02    -2.027    -1.969     0.058
   NaHCO3                 1.270e-03   1.450e-03    -2.896    -2.838     0.058
   CaHCO3+                7.965e-04   5.448e-04    -3.099    -3.264    -0.165
   MgHCO3+                5.011e-04   3.701e-04    -3.300    -3.432    -0.132
   NaCO3-                 5.045e-06   3.726e-06    -5.297    -5.429    -0.132
   CaCO3                  4.871e-06   5.565e-06    -5.312    -5.255     0.058
   CO3-2                  2.750e-06   6.018e-07    -5.561    -6.221    -0.660
   MgCO3                  2.049e-06   2.341e-06    -5.688    -5.631     0.058
Ca               2.246e-02
   Ca+2                   2.160e-02   5.504e-03    -1.666    -2.259    -0.594
   CaHCO3+                7.965e-04   5.448e-04    -3.099    -3.264    -0.165
   CaSO4                  6.136e-05   7.011e-05    -4.212    -4.154     0.058
   CaCO3                  4.871e-06   5.565e-06    -5.312    -5.255     0.058
   CaOH+                  2.009e-09   1.484e-09    -8.697    -8.829    -0.132
   CaHSO4+                3.362e-10   2.483e-10    -9.473    -9.605    -0.132
Cl               5.305e-01
   Cl-                    5.305e-01   3.362e-01    -0.275    -0.473    -0.198
H(0)             0.000e+00
   H2                     0.000e+00   0.000e+00   -44.441   -44.383     0.058
Mg               1.460e-02
   Mg+2                   1.404e-02   4.077e-03    -1.852    -2.390    -0.537
   MgHCO3+                5.011e-04   3.701e-04    -3.300    -3.432    -0.132
   MgSO4                  5.340e-05   6.101e-05    -4.272    -4.215     0.058
   MgCO3                  2.049e-06   2.341e-06    -5.688    -5.631     0.058
   MgOH+                  3.256e-08   2.405e-08    -7.487    -7.619    -0.132
Na               4.715e-01
   Na+                    4.701e-01   3.325e-01    -0.328    -0.478    -0.150
   NaHCO3                 1.270e-03   1.450e-03    -2.896    -2.838     0.058
   NaSO4-                 1.440e-04   1.064e-04    -3.842    -3.973    -0.132
   NaCO3-                 5.045e-06   3.726e-06    -5.297    -5.429    -0.132
   NaOH                   3.123e-09   3.568e-09    -8.505    -8.448     0.058
O(0)             4.101e-04
   O2                     2.050e-04   2.343e-04    -3.688    -3.630     0.058
S(-2)            0.000e+00
   H2S                    0.000e+00   0.000e+00  -140.998  -140.940     0.058
   HS-                    0.000e+00   0.000e+00  -141.456  -141.663    -0.207
   S-2                    0.000e+00   0.000e+00  -147.673  -148.362    -0.689
S(6)             5.879e-04
   SO4-2                  3.291e-04   6.384e-05    -3.483    -4.195    -0.712
   NaSO4-                 1.440e-04   1.064e-04    -3.842    -3.973    -0.132
   CaSO4                  6.136e-05   7.011e-05    -4.212    -4.154     0.058
   MgSO4                  5.340e-05   6.101e-05    -4.272    -4.215     0.058
   HSO4-                  5.080e-09   3.752e-09    -8.294    -8.426    -0.132
   CaHSO4+                3.362e-10   2.483e-10    -9.473    -9.605    -0.132

------------------------------Saturation indices-------------------------------

	Phase               SI log IAP  log KT

	Anhydrite        -2.09   -6.45   -4.36  CaSO4
	Aragonite        -0.14   -8.48   -8.34  CaCO3
	Calcite              0   -8.48   -8.48  CaCO3
	CH4(g)         -139.63 -142.49   -2.86  CH4
	CO2(g)           -0.50   -1.97   -1.47  CO2
	Dolomite             0  -17.09  -17.09  CaMg(CO3)2
	Gypsum           -1.89   -6.47   -4.58  CaSO4:2H2O
	H2(g)           -41.23  -44.38   -3.15  H2
	H2O(g)           -1.52   -0.01    1.51  H2O
	H2S(g)         -139.94 -140.94   -1.00  H2S
	Halite           -2.53   -0.95    1.58  NaCl
	O2(g)            -0.67   -3.63   -2.96  O2
	Sulfur         -104.59  -99.71    4.88  S

Time 10000. Cell 49: x=              0	y=          18000	z=              0
Using solution 49.
Using exchange 49
Using surface 49.
Using pure phase assemblage 49.

-------------------------------Phase assemblage--------------------------------

                                                      Moles in assemblage
Phase                  SI log IAP  log KT      Initial       Final       Delta

Calcite                 0   -8.48   -8.48    1.007e-01   1.011e-01   4.702e-04
Dolomite                0  -17.09  -17.09    1.600e+00   1.599e+00  -2.165e-04

------------------------------Surface composition------------------------------

Surf          
	  1.180e-16  Surface + diffuse layer charge, eq
	  8.258e-02  Surface charge, eq
	  4.427e-01  sigma, C/m**2
	  6.062e-02  psi, V
	 -2.360e+00  -F*psi/RT
	  9.446e-02  exp(-F*psi/RT)
	  6.000e+02  specific area, m**2/g
	  1.800e+04  m**2 for   3.000e+01 g

	Water in diffuse layer: 1.800e-01 kg, 100.0% of total DDL-water.

	Total moles in diffuse layer (excluding water)

	Element       	     Moles
	As            	  1.9908e-09
	C             	  7.4343e-04
	Ca            	  7.9349e-02
	Cl            	  1.2278e+00
	H             	  7.0019e-04
	Mg            	  2.7868e-02
	Na            	  9.3329e-01
	O             	  5.8161e-03
	S             	  9.0322e-04

Surf          
	  1.400e-01  moles
	                                   Mole                     Log
	Species               Moles    Fraction    Molality    Molality

	SurfOH2+          1.031e-01       0.736   1.031e-01      -0.987
	SurfOH            2.814e-02       0.201   2.814e-02      -1.551
	SurfOHAsO4-3      6.020e-03       0.043   6.020e-03      -2.220
	SurfHAsO4-        2.290e-03       0.016   2.290e-03      -2.640
	SurfH2AsO4        2.715e-04       0.002   2.715e-04      -3.566
	SurfO-            1.760e-04       0.001   1.760e-04      -3.755

-----------------------------Exchange composition------------------------------

X                5.000e-01 mol

	                               Equiv-    Equivalent      Log 
	Species             Moles      alents      Fraction     Gamma

	NaX               4.498e-01   4.498e-01   8.996e-01     0.230
	CaX2              2.054e-02   4.109e-02   8.217e-02     0.159
	MgX2              4.553e-03   9.107e-03   1.821e-02     0.483

-----------------------------Solution composition------------------------------

	Elements           Molality       Moles

	As                1.050e-08   1.050e-08
	C                 4.164e-03   4.164e-03
	Ca                4.515e-01   4.515e-01
	Cl                6.477e+00   6.477e+00
	Mg                1.585e-01   1.585e-01
	Na                5.270e+00   5.270e+00
	S                 4.609e-03   4.609e-03

----------------------------Description of solution----------------------------

                                       pH  =   5.701      Charge balance
                                       pe  =  14.961      Adjusted to redox equilibrium
                        Activity of water  =   0.790
                           Ionic strength  =   7.086e+00
                       Mass of water (kg)  =   1.000e+00
                 Total alkalinity (eq/kg)  =   3.922e-03
                       Total CO2 (mol/kg)  =   4.164e-03
                      Temperature (deg C)  =  25.000
                  Electrical balance (eq)  =  -2.622e-09
 Percent error, 100*(Cat-|An|)/(Cat+|An|)  =      0
                               Iterations  =   1
                                  Total H  = 1.110164e+02
                                  Total O  = 5.553700e+01

----------------------------Distribution of species----------------------------

                                                   Log       Log         Log 
   Species                 Molality    Activity  Molality  Activity     Gamma

   H+                     2.829e-06   1.989e-06    -5.548    -5.701    -0.153
   OH-                    8.578e-09   3.975e-09    -8.067    -8.401    -0.334
   H2O                    5.551e+01   7.899e-01     1.744    -0.102         0
As               1.050e-08
   H2AsO4-                1.049e-08   5.411e-08    -7.979    -7.267     0.712
   HAsO4-2                4.218e-12   2.983e-09   -11.375    -8.525     2.850
   H3AsO4                 3.660e-12   1.871e-11   -11.437   -10.728     0.709
   AsO4-3                 1.839e-21   4.742e-15   -20.736   -14.324     6.411
C(-4)            0.000e+00
   CH4                    0.000e+00   0.000e+00  -144.324  -143.615     0.709
C(4)             4.164e-03
   CaHCO3+                3.094e-03   1.793e-03    -2.509    -2.747    -0.237
   HCO3-                  3.762e-04   2.179e-04    -3.425    -3.662    -0.237
   CO2                    2.414e-04   1.234e-03    -3.617    -2.909     0.709
   MgHCO3+                2.361e-04   1.218e-03    -3.627    -2.914     0.712
   NaHCO3                 2.145e-04   1.096e-03    -3.669    -2.960     0.709
   CaCO3                  1.089e-06   5.565e-06    -5.963    -5.255     0.709
   MgCO3                  4.581e-07   2.341e-06    -6.339    -5.631     0.709
   NaCO3-                 1.660e-07   8.559e-07    -6.780    -6.068     0.712
   CO3-2                  4.560e-08   5.138e-09    -7.341    -8.289    -0.948
Ca               4.515e-01
   Ca+2                   4.468e-01   6.447e-01    -0.350    -0.191     0.159
   CaHCO3+                3.094e-03   1.793e-03    -2.509    -2.747    -0.237
   CaSO4                  1.538e-03   7.862e-03    -2.813    -2.104     0.709
   CaCO3                  1.089e-06   5.565e-06    -5.963    -5.255     0.709
   CaHSO4+                1.777e-08   9.162e-08    -7.750    -7.038     0.712
   CaOH+                  8.239e-09   4.249e-08    -8.084    -7.372     0.712
Cl               6.477e+00
   Cl-                    6.477e+00   3.834e+00     0.811     0.584    -0.228
H(0)             0.000e+00
   H2                     0.000e+00   0.000e+00   -45.184   -44.475     0.709
Mg               1.585e-01
   Mg+2                   1.570e-01   4.775e-01    -0.804    -0.321     0.483
   MgSO4                  1.339e-03   6.842e-03    -2.873    -2.165     0.709
   MgHCO3+                2.361e-04   1.218e-03    -3.627    -2.914     0.712
   MgCO3                  4.581e-07   2.341e-06    -6.339    -5.631     0.709
   MgOH+                  1.335e-07   6.885e-07    -6.874    -6.162     0.712
Na               5.270e+00
   Na+                    5.270e+00   8.946e+00     0.722     0.952     0.230
   NaSO4-                 5.314e-04   2.740e-03    -3.275    -2.562     0.712
   NaHCO3                 2.145e-04   1.096e-03    -3.669    -2.960     0.709
   NaCO3-                 1.660e-07   8.559e-07    -6.780    -6.068     0.712
   NaOH                   4.592e-09   2.347e-08    -8.338    -7.629     0.709
O(0)             9.090e-05
   O2                     4.545e-05   2.323e-04    -4.342    -3.634     0.709
S(-2)            0.000e+00
   H2S                    0.000e+00   0.000e+00  -140.625  -139.917     0.709
   HS-                    0.000e+00   0.000e+00  -140.823  -141.157    -0.334
   S-2                    0.000e+00   0.000e+00  -147.364  -148.374    -1.010
S(6)             4.609e-03
   CaSO4                  1.538e-03   7.862e-03    -2.813    -2.104     0.709
   MgSO4                  1.339e-03   6.842e-03    -2.873    -2.165     0.709
   SO4-2                  1.201e-03   6.112e-05    -2.920    -4.214    -1.293
   NaSO4-                 5.314e-04   2.740e-03    -3.275    -2.562     0.712
   CaHSO4+                1.777e-08   9.162e-08    -7.750    -7.038     0.712
   HSO4-                  2.292e-09   1.182e-08    -8.640    -7.927     0.712

------------------------------Saturation indices-------------------------------

	Phase               SI log IAP  log KT

	Anhydrite        -0.04   -4.40   -4.36  CaSO4
	Aragonite        -0.14   -8.48   -8.34  CaCO3
	Calcite              0   -8.48   -8.48  CaCO3
	CH4(g)         -140.76 -143.62   -2.86  CH4
	CO2(g)           -1.44   -2.91   -1.47  CO2
	Dolomite             0  -17.09  -17.09  CaMg(CO3)2
	Gypsum           -0.03   -4.61   -4.58  CaSO4:2H2O
	H2(g)           -41.33  -44.48   -3.15  H2
	H2O(g)           -1.61   -0.10    1.51  H2O
	H2S(g)         -138.92 -139.92   -1.00  H2S
	Halite           -0.05    1.54    1.58  NaCl
	O2(g)            -0.67   -3.63   -2.96  O2
	Sulfur         -103.47  -98.59    4.88  S

Time 10000. Cell 52: x=          18000	y=          18000	z=              0
Using solution 52.
Using exchange 52
Using surface 52.
Using pure phase assemblage 52.

-------------------------------Phase assemblage--------------------------------

                                                      Moles in assemblage
Phase                  SI log IAP  log KT      Initial       Final       Delta

Calcite                 0   -8.48   -8.48    1.337e-01   1.408e-01   7.104e-03
Dolomite                0  -17.09  -17.09    1.582e+00   1.578e+00  -4.512e-03

------------------------------Surface composition------------------------------

Surf          
	  1.145e-16  Surface + diffuse layer charge, eq
	  7.714e-02  Surface charge, eq
	  4.135e-01  sigma, C/m**2
	  7.065e-02  psi, V
	 -2.750e+00  -F*psi/RT
	  6.392e-02  exp(-F*psi/RT)
	  6.000e+02  specific area, m**2/g
	  1.800e+04  m**2 for   3.000e+01 g

	Water in diffuse layer: 1.800e-01 kg, 100.0% of total DDL-water.

	Total moles in diffuse layer (excluding water)

	Element       	     Moles
	As            	  2.8748e-09
	C             	  2.2920e-03
	Ca            	  3.9111e-02
	Cl            	  7.0495e-01
	H             	  1.5422e-03
	Mg            	  1.7990e-02
	Na            	  5.1634e-01
	O             	  8.5543e-03
	S             	  5.9591e-04

Surf          
	  1.400e-01  moles
	                                   Mole                     Log
	Species               Moles    Fraction    Molality    Molality

	SurfOH2+          9.930e-02       0.709   9.929e-02      -1.003
	SurfOH            3.189e-02       0.228   3.189e-02      -1.496
	SurfOHAsO4-3      6.755e-03       0.048   6.754e-03      -2.170
	SurfHAsO4-        1.660e-03       0.012   1.660e-03      -2.780
	SurfO-            2.346e-04       0.002   2.346e-04      -3.630
	SurfH2AsO4        1.672e-04       0.001   1.672e-04      -3.777

-----------------------------Exchange composition------------------------------

X                5.000e-01 mol

	                               Equiv-    Equivalent      Log 
	Species             Moles      alents      Fraction     Gamma

	NaX               4.248e-01   4.248e-01   8.495e-01     0.013
	CaX2              2.911e-02   5.823e-02   1.165e-01    -0.304
	MgX2              8.503e-03   1.701e-02   3.401e-02    -0.100

-----------------------------Solution composition------------------------------

	Elements           Molality       Moles

	As                1.454e-08   1.454e-08
	C                 1.259e-02   1.259e-02
	Ca                2.248e-01   2.248e-01
	Cl                3.580e+00   3.581e+00
	Mg                1.034e-01   1.034e-01
	Na                2.938e+00   2.938e+00
	S                 2.605e-03   2.605e-03

----------------------------Description of solution----------------------------

                                       pH  =   5.602      Charge balance
                                       pe  =  15.065      Adjusted to redox equilibrium
                        Activity of water  =   0.883
                           Ionic strength  =   3.909e+00
                       Mass of water (kg)  =   1.000e+00
                 Total alkalinity (eq/kg)  =   8.425e-03
                       Total CO2 (mol/kg)  =   1.259e-02
                      Temperature (deg C)  =  25.000
                  Electrical balance (eq)  =  -1.213e-09
 Percent error, 100*(Cat-|An|)/(Cat+|An|)  =      0
                               Iterations  =   1
                                  Total H  = 1.110275e+02
                                  Total O  = 5.555379e+01

----------------------------Distribution of species----------------------------

                                                   Log       Log         Log 
   Species                 Molality    Activity  Molality  Activity     Gamma

   H+                     3.506e-06   2.498e-06    -5.455    -5.602    -0.147
   OH-                    7.191e-09   3.540e-09    -8.143    -8.451    -0.308
   H2O                    5.551e+01   8.835e-01     1.744    -0.054         0
As               1.454e-08
   H2AsO4-                1.443e-08   2.620e-08    -7.841    -7.582     0.259
   HAsO4-2                1.058e-10   1.150e-09    -9.975    -8.939     1.036
   H3AsO4                 4.624e-12   1.137e-11   -11.335   -10.944     0.391
   AsO4-3                 6.790e-18   1.455e-15   -17.168   -14.837     2.331
C(-4)            0.000e+00
   CH4                    0.000e+00   0.000e+00  -143.220  -142.829     0.391
C(4)             1.259e-02
   CO2                    4.165e-03   1.024e-02    -2.380    -1.990     0.391
   CaHCO3+                3.767e-03   2.251e-03    -2.424    -2.648    -0.224
   HCO3-                  2.696e-03   1.611e-03    -2.569    -2.793    -0.224
   NaHCO3                 1.115e-03   2.742e-03    -2.953    -2.562     0.391
   MgHCO3+                8.424e-04   1.529e-03    -3.074    -2.815     0.259
   CaCO3                  2.262e-06   5.565e-06    -5.645    -5.255     0.391
   MgCO3                  9.519e-07   2.341e-06    -6.021    -5.631     0.391
   NaCO3-                 9.388e-07   1.704e-06    -6.027    -5.768     0.259
   CO3-2                  2.370e-07   3.024e-08    -6.625    -7.519    -0.894
Ca               2.248e-01
   Ca+2                   2.204e-01   1.095e-01    -0.657    -0.960    -0.304
   CaHCO3+                3.767e-03   2.251e-03    -2.424    -2.648    -0.224
   CaSO4                  6.137e-04   1.510e-03    -3.212    -2.821     0.391
   CaCO3                  2.262e-06   5.565e-06    -5.645    -5.255     0.391
   CaHSO4+                1.217e-08   2.209e-08    -7.915    -7.656     0.259
   CaOH+                  3.541e-09   6.428e-09    -8.451    -8.192     0.259
Cl               3.580e+00
   Cl-                    3.580e+00   2.017e+00     0.554     0.305    -0.249
H(0)             0.000e+00
   H2                     0.000e+00   0.000e+00   -44.875   -44.484     0.391
Mg               1.034e-01
   Mg+2                   1.020e-01   8.113e-02    -0.991    -1.091    -0.100
   MgHCO3+                8.424e-04   1.529e-03    -3.074    -2.815     0.259
   MgSO4                  5.341e-04   1.314e-03    -3.272    -2.881     0.391
   MgCO3                  9.519e-07   2.341e-06    -6.021    -5.631     0.391
   MgOH+                  5.738e-08   1.042e-07    -7.241    -6.982     0.259
Na               2.938e+00
   Na+                    2.936e+00   3.026e+00     0.468     0.481     0.013
   NaHCO3                 1.115e-03   2.742e-03    -2.953    -2.562     0.391
   NaSO4-                 5.771e-04   1.048e-03    -3.239    -2.980     0.259
   NaCO3-                 9.388e-07   1.704e-06    -6.027    -5.768     0.259
   NaOH                   2.875e-09   7.071e-09    -8.541    -8.151     0.391
O(0)             2.462e-04
   O2                     1.231e-04   3.028e-04    -3.910    -3.519     0.391
S(-2)            0.000e+00
   H2S                    0.000e+00   0.000e+00  -140.287  -139.896     0.391
   HS-                    0.000e+00   0.000e+00  -140.928  -141.235    -0.308
   S-2                    0.000e+00   0.000e+00  -147.602  -148.551    -0.949
S(6)             2.605e-03
   SO4-2                  8.798e-04   6.907e-05    -3.056    -4.161    -1.105
   CaSO4                  6.137e-04   1.510e-03    -3.212    -2.821     0.391
   NaSO4-                 5.771e-04   1.048e-03    -3.239    -2.980     0.259
   MgSO4                  5.341e-04   1.314e-03    -3.272    -2.881     0.391
   CaHSO4+                1.217e-08   2.209e-08    -7.915    -7.656     0.259
   HSO4-                  9.241e-09   1.678e-08    -8.034    -7.775     0.259

------------------------------Saturation indices-------------------------------

	Phase               SI log IAP  log KT

	Anhydrite        -0.76   -5.12   -4.36  CaSO4
	Aragonite        -0.14   -8.48   -8.34  CaCO3
	Calcite              0   -8.48   -8.48  CaCO3
	CH4(g)         -139.97 -142.83   -2.86  CH4
	CO2(g)           -0.52   -1.99   -1.47  CO2
	Dolomite             0  -17.09  -17.09  CaMg(CO3)2
	Gypsum           -0.65   -5.23   -4.58  CaSO4:2H2O
	H2(g)           -41.33  -44.48   -3.15  H2
	H2O(g)           -1.56   -0.05    1.51  H2O
	H2S(g)         -138.90 -139.90   -1.00  H2S
	Halite           -0.80    0.79    1.58  NaCl
	O2(g)            -0.56   -3.52   -2.96  O2
	Sulfur         -103.44  -98.56    4.88  S

Time 10000. Cell 55: x=          36000	y=          18000	z=              0
Using solution 55.
Using exchange 55
Using surface 55.
Using pure phase assemblage 55.

-------------------------------Phase assemblage--------------------------------

                                                      Moles in assemblage
Phase                  SI log IAP  log KT      Initial       Final       Delta

Calcite                 0   -8.48   -8.48    1.543e-01   1.522e-01  -2.101e-03
Dolomite                0  -17.09  -17.09    1.556e+00   1.553e+00  -2.826e-03

------------------------------Surface composition------------------------------

Surf          
	  8.674e-17  Surface + diffuse layer charge, eq
	  2.015e-02  Surface charge, eq
	  1.080e-01  sigma, C/m**2
	  6.429e-02  psi, V
	 -2.502e+00  -F*psi/RT
	  8.189e-02  exp(-F*psi/RT)
	  6.000e+02  specific area, m**2/g
	  1.800e+04  m**2 for   3.000e+01 g

	Water in diffuse layer: 1.800e-01 kg, 100.0% of total DDL-water.

	Total moles in diffuse layer (excluding water)

	Element       	     Moles
	As            	  5.2385e-10
	C             	  4.4706e-03
	Ca            	  1.8089e-03
	Cl            	  7.0720e-02
	H             	  3.1665e-03
	Mg            	  1.2211e-03
	Na            	  4.8030e-02
	O             	  1.2887e-02
	S             	  1.7464e-04

Surf          
	  1.400e-01  moles
	                                   Mole                     Log
	Species               Moles    Fraction    Molality    Molality

	SurfOH            7.970e-02       0.569   7.969e-02      -1.099
	SurfOH2+          4.874e-02       0.348   4.873e-02      -1.312
	SurfOHAsO4-3      8.508e-03       0.061   8.507e-03      -2.070
	SurfO-            2.986e-03       0.021   2.985e-03      -2.525
	SurfHAsO4-        7.201e-05       0.001   7.200e-05      -4.143
	SurfH2AsO4        1.425e-06           0   1.425e-06      -5.846

-----------------------------Exchange composition------------------------------

X                5.000e-01 mol

	                               Equiv-    Equivalent      Log 
	Species             Moles      alents      Fraction     Gamma

	NaX               2.956e-01   2.956e-01   5.912e-01    -0.143
	CaX2              7.167e-02   1.433e-01   2.867e-01    -0.552
	MgX2              3.052e-02   6.105e-02   1.221e-01    -0.511

-----------------------------Solution composition------------------------------

	Elements           Molality       Moles

	As                1.543e-09   1.544e-09
	C                 2.157e-02   2.157e-02
	Ca                1.126e-02   1.126e-02
	Cl                3.109e-01   3.109e-01
	Mg                7.600e-03   7.601e-03
	Na                2.884e-01   2.885e-01
	S                 4.512e-04   4.513e-04

----------------------------Description of solution----------------------------

                                       pH  =   6.417      Charge balance
                                       pe  =  14.195      Adjusted to redox equilibrium
                        Activity of water  =   0.989
                           Ionic strength  =   3.424e-01
                       Mass of water (kg)  =   1.000e+00
                 Total alkalinity (eq/kg)  =   1.437e-02
                       Total CO2 (mol/kg)  =   2.157e-02
                      Temperature (deg C)  =  25.000
                  Electrical balance (eq)  =  -5.219e-11
 Percent error, 100*(Cat-|An|)/(Cat+|An|)  =      0
                               Iterations  =   1
                                  Total H  = 1.110381e+02
                                  Total O  = 5.557161e+01

----------------------------Distribution of species----------------------------

                                                   Log       Log         Log 
   Species                 Molality    Activity  Molality  Activity     Gamma

   H+                     4.925e-07   3.830e-07    -6.308    -6.417    -0.109
   OH-                    3.897e-08   2.586e-08    -7.409    -7.587    -0.178
   H2O                    5.551e+01   9.891e-01     1.744    -0.005         0
As               1.543e-09
   H2AsO4-                8.916e-10   6.523e-10    -9.050    -9.186    -0.136
   HAsO4-2                6.517e-10   1.868e-10    -9.186    -9.729    -0.543
   H3AsO4                 4.012e-14   4.341e-14   -13.397   -13.362     0.034
   AsO4-3                 2.567e-14   1.542e-15   -13.591   -14.812    -1.221
C(-4)            0.000e+00
   CH4                    0.000e+00   0.000e+00  -142.637  -142.603     0.034
C(4)             2.157e-02
   HCO3-                  1.257e-02   8.974e-03    -1.901    -2.047    -0.146
   CO2                    7.220e-03   7.812e-03    -2.141    -2.107     0.034
   NaHCO3                 9.645e-04   1.044e-03    -3.016    -2.981     0.034
   CaHCO3+                4.834e-04   3.451e-04    -3.316    -3.462    -0.146
   MgHCO3+                3.204e-04   2.345e-04    -3.494    -3.630    -0.136
   NaCO3-                 5.784e-06   4.232e-06    -5.238    -5.373    -0.136
   CaCO3                  5.143e-06   5.565e-06    -5.289    -5.255     0.034
   CO3-2                  4.227e-06   1.099e-06    -5.374    -5.959    -0.585
   MgCO3                  2.164e-06   2.341e-06    -5.665    -5.631     0.034
Ca               1.126e-02
   Ca+2                   1.073e-02   3.015e-03    -1.969    -2.521    -0.552
   CaHCO3+                4.834e-04   3.451e-04    -3.316    -3.462    -0.146
   CaSO4                  3.777e-05   4.086e-05    -4.423    -4.389     0.034
   CaCO3                  5.143e-06   5.565e-06    -5.289    -5.255     0.034
   CaOH+                  1.766e-09   1.292e-09    -8.753    -8.889    -0.136
   CaHSO4+                1.253e-10   9.168e-11    -9.902   -10.038    -0.136
Cl               3.109e-01
   Cl-                    3.109e-01   2.087e-01    -0.507    -0.680    -0.173
H(0)             0.000e+00
   H2                     0.000e+00   0.000e+00   -44.408   -44.374     0.034
Mg               7.600e-03
   Mg+2                   7.245e-03   2.233e-03    -2.140    -2.651    -0.511
   MgHCO3+                3.204e-04   2.345e-04    -3.494    -3.630    -0.136
   MgSO4                  3.287e-05   3.556e-05    -4.483    -4.449     0.034
   MgCO3                  2.164e-06   2.341e-06    -5.665    -5.631     0.034
   MgOH+                  2.862e-08   2.094e-08    -7.543    -7.679    -0.136
Na               2.884e-01
   Na+                    2.874e-01   2.068e-01    -0.542    -0.684    -0.143
   NaHCO3                 9.645e-04   1.044e-03    -3.016    -2.981     0.034
   NaSO4-                 9.625e-05   7.042e-05    -4.017    -4.152    -0.136
   NaCO3-                 5.784e-06   4.232e-06    -5.238    -5.373    -0.136
   NaOH                   3.262e-09   3.529e-09    -8.487    -8.452     0.034
O(0)             4.217e-04
   O2                     2.109e-04   2.281e-04    -3.676    -3.642     0.034
S(-2)            0.000e+00
   H2S                    0.000e+00   0.000e+00  -141.321  -141.286     0.034
   HS-                    0.000e+00   0.000e+00  -141.633  -141.811    -0.178
   S-2                    0.000e+00   0.000e+00  -147.704  -148.312    -0.608
S(6)             4.512e-04
[...]
   MgSO4                  1.429e-05   1.475e-05    -4.845    -4.831     0.014
   MgCO3                  2.268e-06   2.341e-06    -5.644    -5.631     0.014
   MgOH+                  2.196e-08   1.677e-08    -7.658    -7.775    -0.117
Na               1.244e-01
   Na+                    1.238e-01   9.456e-02    -0.907    -1.024    -0.117
   NaHCO3                 5.807e-04   5.995e-04    -3.236    -3.222     0.014
   NaSO4-                 5.272e-05   4.027e-05    -4.278    -4.395    -0.117
   NaCO3-                 7.637e-06   5.833e-06    -5.117    -5.234    -0.117
   NaOH                   3.774e-09   3.897e-09    -8.423    -8.409     0.014
O(0)             4.318e-04
   O2                     2.159e-04   2.229e-04    -3.666    -3.652     0.014
S(-2)            0.000e+00
   HS-                    0.000e+00   0.000e+00  -141.941  -142.074    -0.133
   H2S                    0.000e+00   0.000e+00  -141.943  -141.929     0.014
   S-2                    0.000e+00   0.000e+00  -147.724  -148.195    -0.471
S(6)             3.379e-04
   SO4-2                  2.545e-04   8.497e-05    -3.594    -4.071    -0.476
   NaSO4-                 5.272e-05   4.027e-05    -4.278    -4.395    -0.117
   CaSO4                  1.642e-05   1.695e-05    -4.785    -4.771     0.014
   MgSO4                  1.429e-05   1.475e-05    -4.845    -4.831     0.014
   HSO4-                  1.726e-09   1.318e-09    -8.763    -8.880    -0.117
   CaHSO4+                2.075e-11   1.585e-11   -10.683   -10.800    -0.117

------------------------------Saturation indices-------------------------------

	Phase               SI log IAP  log KT

	Anhydrite        -2.71   -7.07   -4.36  CaSO4
	Aragonite        -0.14   -8.48   -8.34  CaCO3
	Calcite              0   -8.48   -8.48  CaCO3
	CH4(g)         -140.00 -142.86   -2.86  CH4
	CO2(g)           -0.92   -2.39   -1.47  CO2
	Dolomite             0  -17.09  -17.09  CaMg(CO3)2
	Gypsum           -2.49   -7.07   -4.58  CaSO4:2H2O
	H2(g)           -41.22  -44.37   -3.15  H2
	H2O(g)           -1.51       0    1.51  H2O
	H2S(g)         -140.93 -141.93   -1.00  H2S
	Halite           -3.66   -2.08    1.58  NaCl
	O2(g)            -0.69   -3.65   -2.96  O2
	Sulfur         -105.60 -100.71    4.88  S

Time 10000. Cell 637: x=          72000	y=          18000	z=            400
Cell is dry.
Time 10000. Cell 640: x=          90000	y=          18000	z=            400
Cell is dry.
Time 10000. Cell 657: x=              0	y=          30000	z=            400
Cell is dry.
Time 10000. Cell 660: x=          18000	y=          30000	z=            400
Cell is dry.
Time 10000. Cell 663: x=          36000	y=          30000	z=            400
Using solution 663.
Using exchange 663
Using surface 663.
Using pure phase assemblage 663.

-------------------------------Phase assemblage--------------------------------

                                                      Moles in assemblage
Phase                  SI log IAP  log KT      Initial       Final       Delta

Calcite                 0   -8.48   -8.48    1.499e-01   1.478e-01  -2.158e-03
Dolomite                0  -17.09  -17.09    1.556e+00   1.553e+00  -2.632e-03

------------------------------Surface composition------------------------------

Surf          
	 -3.469e-18  Surface + diffuse layer charge, eq
	  1.502e-02  Surface charge, eq
	  8.052e-02  sigma, C/m**2
	  5.923e-02  psi, V
	 -2.305e+00  -F*psi/RT
	  9.973e-02  exp(-F*psi/RT)
	  6.000e+02  specific area, m**2/g
	  1.800e+04  m**2 for   3.000e+01 g

	Water in diffuse layer: 1.800e-01 kg, 100.0% of total DDL-water.

	Total moles in diffuse layer (excluding water)

	Element       	     Moles
	As            	  5.3033e-10
	C             	  4.2002e-03
	Ca            	  1.0975e-03
	Cl            	  4.9078e-02
	H             	  3.1942e-03
	Mg            	  7.5526e-04
	Na            	  3.3855e-02
	O             	  1.2273e-02
	S             	  1.4903e-04

Surf          
	  1.400e-01  moles
	                                   Mole                     Log
	Species               Moles    Fraction    Molality    Molality

	SurfOH            8.354e-02       0.597   8.353e-02      -1.078
	SurfOH2+          4.427e-02       0.316   4.426e-02      -1.354
	SurfOHAsO4-3      8.527e-03       0.061   8.526e-03      -2.069
	SurfO-            3.612e-03       0.026   3.612e-03      -2.442
	SurfHAsO4-        5.401e-05           0   5.400e-05      -4.268
	SurfH2AsO4        9.260e-07           0   9.259e-07      -6.033

-----------------------------Exchange composition------------------------------

X                5.000e-01 mol

	                               Equiv-    Equivalent      Log 
	Species             Moles      alents      Fraction     Gamma

	NaX               2.789e-01   2.789e-01   5.577e-01    -0.134
	CaX2              7.709e-02   1.542e-01   3.084e-01    -0.513
	MgX2              3.348e-02   6.695e-02   1.339e-01    -0.481

-----------------------------Solution composition------------------------------

	Elements           Molality       Moles

	As                1.535e-09   1.535e-09
	C                 1.984e-02   1.984e-02
	Ca                6.960e-03   6.961e-03
	Cl                2.141e-01   2.141e-01
	Mg                4.790e-03   4.790e-03
	Na                2.057e-01   2.057e-01
	S                 3.914e-04   3.914e-04

----------------------------Description of solution----------------------------

                                       pH  =   6.565      Charge balance
                                       pe  =  14.045      Adjusted to redox equilibrium
                        Activity of water  =   0.992
                           Ionic strength  =   2.391e-01
                       Mass of water (kg)  =   1.000e+00
                 Total alkalinity (eq/kg)  =   1.430e-02
                       Total CO2 (mol/kg)  =   1.984e-02
                      Temperature (deg C)  =  25.000
                  Electrical balance (eq)  =  -3.297e-11
 Percent error, 100*(Cat-|An|)/(Cat+|An|)  =      0
                               Iterations  =   1
                                  Total H  = 1.110347e+02
                                  Total O  = 5.556615e+01

----------------------------Distribution of species----------------------------

                                                   Log       Log         Log 
   Species                 Molality    Activity  Molality  Activity     Gamma

   H+                     3.445e-07   2.725e-07    -6.463    -6.565    -0.102
   OH-                    5.263e-08   3.646e-08    -7.279    -7.438    -0.159
   H2O                    5.551e+01   9.923e-01     1.744    -0.003         0
As               1.535e-09
   H2AsO4-                7.705e-10   5.702e-10    -9.113    -9.244    -0.131
   HAsO4-2                7.648e-10   2.294e-10    -9.116    -9.639    -0.523
   AsO4-3                 3.998e-14   2.663e-15   -13.398   -14.575    -1.176
   H3AsO4                 2.555e-14   2.700e-14   -13.593   -13.569     0.024
C(-4)            0.000e+00
   CH4                    0.000e+00   0.000e+00  -142.737  -142.714     0.024
C(4)             1.984e-02
   HCO3-                  1.294e-02   9.515e-03    -1.888    -2.022    -0.133
   CO2                    5.559e-03   5.874e-03    -2.255    -2.231     0.024
   NaHCO3                 7.624e-04   8.056e-04    -3.118    -3.094     0.024
   CaHCO3+                3.339e-04   2.456e-04    -3.476    -3.610    -0.133
   MgHCO3+                2.254e-04   1.668e-04    -3.647    -3.778    -0.131
   NaCO3-                 6.203e-06   4.591e-06    -5.207    -5.338    -0.131
   CO3-2                  5.595e-06   1.638e-06    -5.252    -5.786    -0.534
   CaCO3                  5.267e-06   5.565e-06    -5.278    -5.255     0.024
   MgCO3                  2.216e-06   2.341e-06    -5.654    -5.631     0.024
Ca               6.960e-03
   Ca+2                   6.594e-03   2.023e-03    -2.181    -2.694    -0.513
   CaHCO3+                3.339e-04   2.456e-04    -3.476    -3.610    -0.133
   CaSO4                  2.778e-05   2.935e-05    -4.556    -4.532     0.024
   CaCO3                  5.267e-06   5.565e-06    -5.278    -5.255     0.024
   CaOH+                  1.652e-09   1.223e-09    -8.782    -8.913    -0.131
   CaHSO4+                6.331e-11   4.685e-11   -10.199   -10.329    -0.131
Cl               2.141e-01
   Cl-                    2.141e-01   1.496e-01    -0.669    -0.825    -0.156
H(0)             0.000e+00
   H2                     0.000e+00   0.000e+00   -44.394   -44.370     0.024
Mg               4.790e-03
   Mg+2                   4.538e-03   1.498e-03    -2.343    -2.824    -0.481
   MgHCO3+                2.254e-04   1.668e-04    -3.647    -3.778    -0.131
   MgSO4                  2.417e-05   2.554e-05    -4.617    -4.593     0.024
   MgCO3                  2.216e-06   2.341e-06    -5.654    -5.631     0.024
   MgOH+                  2.677e-08   1.981e-08    -7.572    -7.703    -0.131
Na               2.057e-01
   Na+                    2.049e-01   1.506e-01    -0.689    -0.822    -0.134
   NaHCO3                 7.624e-04   8.056e-04    -3.118    -3.094     0.024
   NaSO4-                 7.414e-05   5.487e-05    -4.130    -4.261    -0.131
   NaCO3-                 6.203e-06   4.591e-06    -5.207    -5.338    -0.131
   NaOH                   3.429e-09   3.623e-09    -8.465    -8.441     0.024
O(0)             4.267e-04
   O2                     2.134e-04   2.254e-04    -3.671    -3.647     0.024
S(-2)            0.000e+00
   H2S                    0.000e+00   0.000e+00  -141.566  -141.542     0.024
   HS-                    0.000e+00   0.000e+00  -141.760  -141.919    -0.159
   S-2                    0.000e+00   0.000e+00  -147.720  -148.272    -0.553
S(6)             3.914e-04
   SO4-2                  2.653e-04   7.271e-05    -3.576    -4.138    -0.562
   NaSO4-                 7.414e-05   5.487e-05    -4.130    -4.261    -0.131
   CaSO4                  2.778e-05   2.935e-05    -4.556    -4.532     0.024
   MgSO4                  2.417e-05   2.554e-05    -4.617    -4.593     0.024
   HSO4-                  2.603e-09   1.926e-09    -8.585    -8.715    -0.131
   CaHSO4+                6.331e-11   4.685e-11   -10.199   -10.329    -0.131

------------------------------Saturation indices-------------------------------

	Phase               SI log IAP  log KT

	Anhydrite        -2.47   -6.83   -4.36  CaSO4
	Aragonite        -0.14   -8.48   -8.34  CaCO3
	Calcite              0   -8.48   -8.48  CaCO3
	CH4(g)         -139.85 -142.71   -2.86  CH4
	CO2(g)           -0.76   -2.23   -1.47  CO2
	Dolomite             0  -17.09  -17.09  CaMg(CO3)2
	Gypsum           -2.26   -6.84   -4.58  CaSO4:2H2O
	H2(g)           -41.22  -44.37   -3.15  H2
	H2O(g)           -1.51       0    1.51  H2O
	H2S(g)         -140.55 -141.54   -1.00  H2S
	Halite           -3.23   -1.65    1.58  NaCl
	O2(g)            -0.69   -3.65   -2.96  O2
	Sulfur         -105.20 -100.32    4.88  S

Time 10000. Cell 666: x=          54000	y=          30000	z=            400
Using solution 666.
Using exchange 666
Using surface 666.
Using pure phase assemblage 666.

-------------------------------Phase assemblage--------------------------------

                                                      Moles in assemblage
Phase                  SI log IAP  log KT      Initial       Final       Delta

Calcite                 0   -8.48   -8.48    1.433e-01   1.410e-01  -2.274e-03
Dolomite                0  -17.09  -17.09    1.557e+00   1.554e+00  -2.656e-03

------------------------------Surface composition------------------------------

Surf          
	  1.249e-16  Surface + diffuse layer charge, eq
	  9.934e-03  Surface charge, eq
	  5.325e-02  sigma, C/m**2
	  5.151e-02  psi, V
	 -2.005e+00  -F*psi/RT
	  1.347e-01  exp(-F*psi/RT)
	  6.000e+02  specific area, m**2/g
	  1.800e+04  m**2 for   3.000e+01 g

	Water in diffuse layer: 1.800e-01 kg, 100.0% of total DDL-water.

	Total moles in diffuse layer (excluding water)

	Element       	     Moles
	As            	  5.9728e-10
	C             	  4.2357e-03
	Ca            	  5.2966e-04
	Cl            	  2.9841e-02
	H             	  3.4730e-03
	Mg            	  3.7139e-04
	Na            	  2.1840e-02
	O             	  1.2524e-02
	S             	  1.2384e-04

Surf          
	  1.400e-01  moles
	                                   Mole                     Log
	Species               Moles    Fraction    Molality    Molality

	SurfOH            8.712e-02       0.622   8.711e-02      -1.060
	SurfOH2+          3.995e-02       0.285   3.995e-02      -1.399
	SurfOHAsO4-3      8.540e-03       0.061   8.540e-03      -2.069
	SurfO-            4.352e-03       0.031   4.352e-03      -2.361
	SurfHAsO4-        4.040e-05           0   4.040e-05      -4.394
	SurfH2AsO4        5.995e-07           0   5.995e-07      -6.222

-----------------------------Exchange composition------------------------------

X                5.000e-01 mol

	                               Equiv-    Equivalent      Log 
	Species             Moles      alents      Fraction     Gamma

	NaX               2.672e-01   2.672e-01   5.345e-01    -0.120
	CaX2              8.066e-02   1.613e-01   3.226e-01    -0.458
	MgX2              3.572e-02   7.144e-02   1.429e-01    -0.435

-----------------------------Solution composition------------------------------

	Elements           Molality       Moles

	As                1.775e-09   1.775e-09
	C                 1.962e-02   1.962e-02
	Ca                3.445e-03   3.445e-03
	Cl                1.303e-01   1.303e-01
	Mg                2.415e-03   2.415e-03
	Na                1.347e-01   1.347e-01
	S                 3.444e-04   3.444e-04

----------------------------Description of solution----------------------------

                                       pH  =   6.758      Charge balance
                                       pe  =  13.850      Adjusted to redox equilibrium
                        Activity of water  =   0.995
                           Ionic strength  =   1.510e-01
                       Mass of water (kg)  =   1.000e+00
                 Total alkalinity (eq/kg)  =   1.544e-02
                       Total CO2 (mol/kg)  =   1.962e-02
                      Temperature (deg C)  =  25.000
                  Electrical balance (eq)  =  -1.507e-11
 Percent error, 100*(Cat-|An|)/(Cat+|An|)  =      0
                               Iterations  =   1
                                  Total H  = 1.110328e+02
                                  Total O  = 5.556518e+01

----------------------------Distribution of species----------------------------

                                                   Log       Log         Log 
   Species                 Molality    Activity  Molality  Activity     Gamma

   H+                     2.159e-07   1.746e-07    -6.666    -6.758    -0.092
   OH-                    7.818e-08   5.705e-08    -7.107    -7.244    -0.137
   H2O                    5.551e+01   9.951e-01     1.744    -0.002         0
As               1.775e-09
   HAsO4-2                1.045e-09   3.478e-10    -8.981    -9.459    -0.478
   H2AsO4-                7.293e-10   5.539e-10    -9.137    -9.257    -0.119
   AsO4-3                 7.490e-14   6.299e-15   -13.126   -14.201    -1.075
   H3AsO4                 1.623e-14   1.681e-14   -13.790   -13.774     0.015
C(-4)            0.000e+00
   CH4                    0.000e+00   0.000e+00  -142.848  -142.833     0.015
C(4)             1.962e-02
   HCO3-                  1.444e-02   1.102e-02    -1.840    -1.958    -0.117
   CO2                    4.201e-03   4.349e-03    -2.377    -2.362     0.015
   NaHCO3                 6.091e-04   6.306e-04    -3.215    -3.200     0.015
   CaHCO3+                2.061e-04   1.574e-04    -3.686    -3.803    -0.117
   MgHCO3+                1.407e-04   1.069e-04    -3.852    -3.971    -0.119
   CO3-2                  8.713e-06   2.961e-06    -5.060    -5.529    -0.469
   NaCO3-                 7.385e-06   5.609e-06    -5.132    -5.251    -0.119
   CaCO3                  5.375e-06   5.565e-06    -5.270    -5.255     0.015
   MgCO3                  2.261e-06   2.341e-06    -5.646    -5.631     0.015
Ca               3.445e-03
   Ca+2                   3.215e-03   1.119e-03    -2.493    -2.951    -0.458
   CaHCO3+                2.061e-04   1.574e-04    -3.686    -3.803    -0.117
   CaSO4                  1.784e-05   1.848e-05    -4.748    -4.733     0.015
   CaCO3                  5.375e-06   5.565e-06    -5.270    -5.255     0.015
   CaOH+                  1.393e-09   1.058e-09    -8.856    -8.975    -0.119
   CaHSO4+                2.488e-11   1.890e-11   -10.604   -10.724    -0.119
Cl               1.303e-01
   Cl-                    1.303e-01   9.557e-02    -0.885    -1.020    -0.135
H(0)             0.000e+00
   H2                     0.000e+00   0.000e+00   -44.382   -44.367     0.015
Mg               2.415e-03
   Mg+2                   2.257e-03   8.287e-04    -2.647    -3.082    -0.435
   MgHCO3+                1.407e-04   1.069e-04    -3.852    -3.971    -0.119
   MgSO4                  1.553e-05   1.608e-05    -4.809    -4.794     0.015
   MgCO3                  2.261e-06   2.341e-06    -5.646    -5.631     0.015
   MgOH+                  2.258e-08   1.715e-08    -7.646    -7.766    -0.119
Na               1.347e-01
   Na+                    1.340e-01   1.017e-01    -0.873    -0.993    -0.120
   NaHCO3                 6.091e-04   6.306e-04    -3.215    -3.200     0.015
   NaSO4-                 5.556e-05   4.220e-05    -4.255    -4.375    -0.119
   NaCO3-                 7.385e-06   5.609e-06    -5.132    -5.251    -0.119
   NaOH                   3.699e-09   3.830e-09    -8.432    -8.417     0.015
O(0)             4.312e-04
   O2                     2.156e-04   2.232e-04    -3.666    -3.651     0.015
S(-2)            0.000e+00
   H2S                    0.000e+00   0.000e+00  -141.879  -141.864     0.015
   HS-                    0.000e+00   0.000e+00  -141.911  -142.048    -0.137
   S-2                    0.000e+00   0.000e+00  -147.724  -148.208    -0.483
S(6)             3.444e-04
   SO4-2                  2.554e-04   8.276e-05    -3.593    -4.082    -0.489
   NaSO4-                 5.556e-05   4.220e-05    -4.255    -4.375    -0.119
   CaSO4                  1.784e-05   1.848e-05    -4.748    -4.733     0.015
   MgSO4                  1.553e-05   1.608e-05    -4.809    -4.794     0.015
   HSO4-                  1.850e-09   1.405e-09    -8.733    -8.852    -0.119
   CaHSO4+                2.488e-11   1.890e-11   -10.604   -10.724    -0.119

------------------------------Saturation indices-------------------------------

	Phase               SI log IAP  log KT

	Anhydrite        -2.67   -7.03   -4.36  CaSO4
	Aragonite        -0.14   -8.48   -8.34  CaCO3
	Calcite              0   -8.48   -8.48  CaCO3
	CH4(g)         -139.97 -142.83   -2.86  CH4
	CO2(g)           -0.89   -2.36   -1.47  CO2
	Dolomite             0  -17.09  -17.09  CaMg(CO3)2
	Gypsum           -2.46   -7.04   -4.58  CaSO4:2H2O
	H2(g)           -41.22  -44.37   -3.15  H2
	H2O(g)           -1.51       0    1.51  H2O
	H2S(g)         -140.87 -141.86   -1.00  H2S
	Halite           -3.59   -2.01    1.58  NaCl
	O2(g)            -0.69   -3.65   -2.96  O2
	Sulfur         -105.53 -100.65    4.88  S

Time 10000. Cell 669: x=          72000	y=          30000	z=            400
Cell is dry.
Time 10000. Cell 672: x=          90000	y=          30000	z=            400
Cell is dry.
Time 10000. Cell 705: x=              0	y=          48000	z=            400
Cell is dry.
Time 10000. Cell 708: x=          18000	y=          48000	z=            400
Cell is dry.
Time 10000. Cell 711: x=          36000	y=          48000	z=            400
Cell is dry.
Time 10000. Cell 714: x=          54000	y=          48000	z=            400
Cell is dry.
Time 10000. Cell 717: x=          72000	y=          48000	z=            400
Cell is dry.
Time 10000. Cell 720: x=          90000	y=          48000	z=            400
Cell is dry.
