Output file:    phrqex11.chem.txt
Chemistry file: phrqex11.chem.dat
Database file:  phast.dat

------------------
Reading data base.
------------------

	SOLUTION_MASTER_SPECIES
	SOLUTION_SPECIES
	PHASES
	EXCHANGE_MASTER_SPECIES
	EXCHANGE_SPECIES
	SURFACE_MASTER_SPECIES
	SURFACE_SPECIES
	RATES
	END
------------------------------------
Reading input data for simulation 1.
------------------------------------

	TITLE PHREEQC example 11.--Transport and ion exchange
	SOLUTION 0  CaCl2
	        units   mmol/kgw
	        pH      7.0     charge
	        pe      12.5   O2(g)  -0.68
	        temp    25.0
	        Ca      0.6
	        Cl      1.2
	SOLUTION 1  Initial solution for column
	        units   mmol/kgw
	        pH      7.0     charge
	        pe      12.5   O2(g)  -0.68
	        temp    25.0
	        Na      1.0
	        K       0.2
	        N(5)    1.2
	END
-----
TITLE
-----

 PHREEQC example 11.--Transport and ion exchange

-------------------------------------------
Beginning of initial solution calculations.
-------------------------------------------

Initial solution 0.	CaCl2

-----------------------------Solution composition------------------------------

	Elements           Molality       Moles

	Ca                6.000e-04   6.000e-04
	Cl                1.200e-03   1.200e-03

----------------------------Description of solution----------------------------

                                       pH  =   6.997      Charge balance
                                       pe  =  13.613      Equilibrium with O2(g)
                        Activity of water  =   1.000
                           Ionic strength  =   1.800e-03
                       Mass of water (kg)  =   1.000e+00
                 Total alkalinity (eq/kg)  =  -5.916e-20
                    Total carbon (mol/kg)  =   0.000e+00
                       Total CO2 (mol/kg)  =   0.000e+00
                      Temperature (deg C)  =  25.000
                  Electrical balance (eq)  =   2.681e-18
 Percent error, 100*(Cat-|An|)/(Cat+|An|)  =      0
                               Iterations  =   4
                                  Total H  = 1.110124e+02
                                  Total O  = 5.550667e+01

----------------------------Distribution of species----------------------------

                                                   Log       Log         Log 
   Species                 Molality    Activity  Molality  Activity     Gamma

   H+                     1.052e-07   1.006e-07    -6.978    -6.997    -0.019
   OH-                    1.043e-07   9.948e-08    -6.982    -7.002    -0.021
   H2O                    5.551e+01   1.000e+00     1.744         0         0
Ca               6.000e-04
   Ca+2                   6.000e-04   4.985e-04    -3.222    -3.302    -0.081
   CaOH+                  8.617e-10   8.221e-10    -9.065    -9.085    -0.020
Cl               1.200e-03
   Cl-                    1.200e-03   1.144e-03    -2.921    -2.941    -0.021
H(0)             0.000e+00
   H2                     0.000e+00   0.000e+00   -44.370   -44.370         0
O(0)             4.580e-04
   O2                     2.290e-04   2.291e-04    -3.640    -3.640         0

------------------------------Saturation indices-------------------------------

	Phase               SI log IAP  log KT

	H2(g)           -41.22  -44.37   -3.15  H2
	H2O(g)           -1.51       0    1.51  H2O
	O2(g)            -0.68   -3.64   -2.96  O2

Initial solution 1.	Initial solution for column

-----------------------------Solution composition------------------------------

	Elements           Molality       Moles

	K                 2.000e-04   2.000e-04
	N(5)              1.200e-03   1.200e-03
	Na                1.000e-03   1.000e-03

----------------------------Description of solution----------------------------

                                       pH  =   6.999      Charge balance
                                       pe  =  13.611      Equilibrium with O2(g)
                        Activity of water  =   1.000
                           Ionic strength  =   1.200e-03
                       Mass of water (kg)  =   1.000e+00
                 Total alkalinity (eq/kg)  =  -7.403e-19
                    Total carbon (mol/kg)  =   0.000e+00
                       Total CO2 (mol/kg)  =   0.000e+00
                      Temperature (deg C)  =  25.000
                  Electrical balance (eq)  =  -8.492e-17
 Percent error, 100*(Cat-|An|)/(Cat+|An|)  =      0
                               Iterations  =   3
                                  Total H  = 1.110124e+02
                                  Total O  = 5.551027e+01

----------------------------Distribution of species----------------------------

                                                   Log       Log         Log 
   Species                 Molality    Activity  Molality  Activity     Gamma

   H+                     1.040e-07   1.002e-07    -6.983    -6.999    -0.016
   OH-                    1.039e-07   9.991e-08    -6.983    -7.000    -0.017
   H2O                    5.551e+01   1.000e+00     1.744         0         0
H(0)             0.000e+00
   H2                     0.000e+00   0.000e+00   -44.370   -44.370         0
K                2.000e-04
   K+                     2.000e-04   1.923e-04    -3.699    -3.716    -0.017
   KOH                    6.654e-12   6.656e-12   -11.177   -11.177         0
N(5)             1.200e-03
   NO3-                   1.200e-03   1.154e-03    -2.921    -2.938    -0.017
Na               1.000e-03
   Na+                    1.000e-03   9.621e-04    -3.000    -3.017    -0.017
   NaOH                   6.342e-11   6.344e-11   -10.198   -10.198         0
O(0)             4.580e-04
   O2                     2.290e-04   2.291e-04    -3.640    -3.640         0

------------------------------Saturation indices-------------------------------

	Phase               SI log IAP  log KT

	H2(g)           -41.22  -44.37   -3.15  H2
	H2O(g)           -1.51       0    1.51  H2O
	O2(g)            -0.68   -3.64   -2.96  O2

------------------
End of simulation.
------------------

------------------------------------
Reading input data for simulation 2.
------------------------------------

	EXCHANGE 1
	        equilibrate 1
	        X       0.0011
	END
-------------------------------------------------------
Beginning of initial exchange-composition calculations.
-------------------------------------------------------

Exchange 1.	

X                1.100e-03 mol

	                               Equiv-    Equivalent      Log 
	Species             Moles      alents      Fraction     Gamma

	KX                5.507e-04   5.507e-04   5.006e-01    -0.017
	NaX               5.493e-04   5.493e-04   4.994e-01    -0.017

------------------
End of simulation.
------------------

------------------------------------
Reading input data for simulation 3.
------------------------------------

	SELECTED_OUTPUT
	        file phrqex11.sel
	        reset false
	END
------------------
End of simulation.
------------------

------------------------------------
Reading input data for simulation 4.
------------------------------------

	USER_PUNCH
	heading Pore_volume Na Cl K Ca 
	10 PUNCH TOTAL_TIME/86400*3
	20 PUNCH TOT("Na") * 1000
	30 PUNCH TOT("Cl") * 1000
	40 PUNCH TOT("K") * 1000
	50 PUNCH TOT("Ca") * 1000
	END
------------------
End of simulation.
------------------

------------------------------------
Reading input data for simulation 5.
------------------------------------

List of Components:
	1	H
	2	O
	3	Ca
	4	Cl
	5	K
	6	N
	7	Na
	8	Charge
List of master species:
	1	Ca
	2	Cl
	3	K
	4	N(-3)
	5	N(0)
	6	N(3)
	7	N(5)
	8	Na
