Output file:    ex1.chem.txt
Chemistry file: ex1.chem.dat
Database file:  phast.dat

------------------
Reading data base.
------------------

	SOLUTION_MASTER_SPECIES
	SOLUTION_SPECIES
	PHASES
	EXCHANGE_MASTER_SPECIES
	EXCHANGE_SPECIES
	SURFACE_MASTER_SPECIES
	SURFACE_SPECIES
	RATES
	END
------------------------------------
Reading input data for simulation 1.
------------------------------------

	TITLE
	.       Example 1.--Pulse of solute undergoing sorption and decay
	.       Analytical solution from Quantitative Hydrogeology, de Marsily
	SOLUTION_MASTER_SPECIES
	        A       A       0      A       1
	SOLUTION_SPECIES
	        A = A
	        log_k   0
	SURFACE_MASTER_SPECIES
	        Surf    Surf
	SURFACE_SPECIES
	        Surf = Surf
	                log_k 0
	        Surf + A = SurfA 
	                log_k   -10
	SOLUTION 1
	END
-----
TITLE
-----

.       Example 1.--Pulse of solute undergoing sorption and decay
.       Analytical solution from Quantitative Hydrogeology, de Marsily

-------------------------------------------
Beginning of initial solution calculations.
-------------------------------------------

Initial solution 1.	

-----------------------------Solution composition------------------------------

	Elements           Molality       Moles

	Pure water     

----------------------------Description of solution----------------------------

                                       pH  =   7.000    
                                       pe  =   4.000    
                        Activity of water  =   1.000
                           Ionic strength  =   1.001e-07
                       Mass of water (kg)  =   1.000e+00
                 Total alkalinity (eq/kg)  =   1.082e-10
                    Total carbon (mol/kg)  =   0 
                       Total CO2 (mol/kg)  =   0 
                      Temperature (deg C)  =  25.000
                  Electrical balance (eq)  =  -1.082e-10
 Percent error, 100*(Cat-|An|)/(Cat+|An|)  =  -0.05
                               Iterations  =   0
                                  Total H  = 1.110124e+02
                                  Total O  = 5.550622e+01

----------------------------Distribution of species----------------------------

                                                   Log       Log         Log 
   Species                 Molality    Activity  Molality  Activity     Gamma

   OH-                    1.002e-07   1.001e-07    -6.999    -6.999         0
   H+                     1.001e-07   1.000e-07    -7.000    -7.000         0
   H2O                    5.551e+01   1.000e+00     1.744         0        0
H(0)             1.416e-25
   H2                     7.079e-26   7.079e-26   -25.150   -25.150         0
O(0)             0 
   O2                     0  0  -42.080   -42.080         0

------------------------------Saturation indices-------------------------------

	Phase               SI log IAP  log KT

	H2(g)           -22.00  -25.15   -3.15  H2
	H2O(g)           -1.51       0   1.51  H2O
	O2(g)           -39.12  -42.08   -2.96  O2

------------------
End of simulation.
------------------

------------------------------------
Reading input data for simulation 2.
------------------------------------

	SOLUTION 2
	        A        1.0 mmol/kgw
	END
-------------------------------------------
Beginning of initial solution calculations.
-------------------------------------------

Initial solution 2.	

-----------------------------Solution composition------------------------------

	Elements           Molality       Moles

	A                 1.000e-03   1.000e-03

----------------------------Description of solution----------------------------

                                       pH  =   7.000    
                                       pe  =   4.000    
                        Activity of water  =   1.000
                           Ionic strength  =   1.001e-07
                       Mass of water (kg)  =   1.000e+00
                 Total alkalinity (eq/kg)  =   1.065e-10
                    Total carbon (mol/kg)  =   0 
                       Total CO2 (mol/kg)  =   0 
                      Temperature (deg C)  =  25.000
                  Electrical balance (eq)  =  -1.065e-10
 Percent error, 100*(Cat-|An|)/(Cat+|An|)  =  -0.05
                               Iterations  =   2
                                  Total H  = 1.110124e+02
                                  Total O  = 5.550622e+01

----------------------------Distribution of species----------------------------

                                                   Log       Log         Log 
   Species                 Molality    Activity  Molality  Activity     Gamma

   OH-                    1.001e-07   1.001e-07    -6.999    -7.000         0
   H+                     1.000e-07   1.000e-07    -7.000    -7.000         0
   H2O                    5.551e+01   1.000e+00     1.744         0        0
A                1.000e-03
   A                      1.000e-03   1.000e-03    -3.000    -3.000         0
H(0)             1.416e-25
   H2                     7.079e-26   7.079e-26   -25.150   -25.150         0
O(0)             0 
   O2                     0  0  -42.080   -42.080         0

------------------------------Saturation indices-------------------------------

	Phase               SI log IAP  log KT

	H2(g)           -22.00  -25.15   -3.15  H2
	H2O(g)           -1.51       0   1.51  H2O
	O2(g)           -39.12  -42.08   -2.96  O2

------------------
End of simulation.
------------------

------------------------------------
Reading input data for simulation 3.
------------------------------------

	SURFACE 1
	        no_edl
	        Surf    1e10    
	END
------------------
End of simulation.
------------------

------------------------------------
Reading input data for simulation 4.
------------------------------------

	KINETICS 1
	        A_decay
	        formula A 1.0
	        m 0
	RATES
	        A_decay
	        start
	10 rate = -(TOT("A") + MOL("SurfA")) * .01
	20 moles = rate * TIME
	30 SAVE moles
	        end
	END
------------------
End of simulation.
------------------

------------------------------------
Reading input data for simulation 5.
------------------------------------

	SELECTED_OUTPUT
	        file ex1.dummy.sel
	        reset false
	USER_PUNCH
	        headings A SurfA SurfA/A
	10 PUNCH TOT("A")*1000
	20 PUNCH MOL("SurfA")*1000
	30 IF TOT("A") > 0 THEN PUNCH MOL("SurfA")/TOT("A") ELSE PUNCH -1
	END
------------------
End of simulation.
------------------

------------------------------------
Reading input data for simulation 6.
------------------------------------

List of Components:
	1	H
	2	O
	3	A
	4	Charge
List of master species:
	1	A
Time 120. Cell 1: x=              0	y=              0	z=              0
Using solution 1.
Using surface 1.
Using kinetics 1.

Kinetics.

	Time:      120 seconds
	Time step: 0.4 seconds

	Rate name       Delta Moles Total Moles   Reactant        Coefficient

	A_decay           5.420e-15   1.175e-03   A                         1

------------------------------Surface composition------------------------------

Surf          
	  0 Surface charge, eq
Surf          
	  1.000e+10  moles
	                                   Mole                     Log
	Species               Moles    Fraction    Molality    Molality

	Surf              1.000e+10       1.000   1.000e+10      10.000
	SurfA             6.748e-13           0  6.748e-13     -12.171

-----------------------------Solution composition------------------------------

	Elements           Molality       Moles

	A                 6.748e-13   6.748e-13

----------------------------Description of solution----------------------------

                                       pH  =   7.000      Charge balance
                                       pe  =  10.745      Adjusted to redox equilibrium
                        Activity of water  =   1.000
                           Ionic strength  =   1.001e-07
                       Mass of water (kg)  =   1.000e+00
                 Total alkalinity (eq/kg)  =   1.082e-10
                    Total carbon (mol/kg)  =   0 
                       Total CO2 (mol/kg)  =   0 
                      Temperature (deg C)  =  25.000
                  Electrical balance (eq)  =  -1.082e-10
 Percent error, 100*(Cat-|An|)/(Cat+|An|)  =  -0.05
                               Iterations  =   5
                                  Total H  = 1.110124e+02
                                  Total O  = 5.550622e+01

----------------------------Distribution of species----------------------------

                                                   Log       Log         Log 
   Species                 Molality    Activity  Molality  Activity     Gamma

   OH-                    1.001e-07   1.001e-07    -6.999    -7.000         0
   H+                     1.000e-07   1.000e-07    -7.000    -7.000         0
   H2O                    5.551e+01   1.000e+00     1.744         0        0
A                6.748e-13
   A                      6.748e-13   6.748e-13   -12.171   -12.171         0
H(0)             4.589e-39
   H2                     2.294e-39   2.294e-39   -38.639   -38.639         0
O(0)             1.584e-15
   O2                     7.918e-16   7.918e-16   -15.101   -15.101         0

------------------------------Saturation indices-------------------------------

	Phase               SI log IAP  log KT

	H2(g)           -35.49  -38.64   -3.15  H2
	H2O(g)           -1.51       0   1.51  H2O
	O2(g)           -12.14  -15.10   -2.96  O2

Time 120. Cell 2: x=          0.002	y=              0	z=              0
Using solution 2.
Using surface 2.
Using kinetics 2.

Kinetics.

	Time:      120 seconds
	Time step: 0.4 seconds

	Rate name       Delta Moles Total Moles   Reactant        Coefficient

	A_decay           5.453e-12   1.130e-03   A                         1

------------------------------Surface composition------------------------------

Surf          
	  0 Surface charge, eq
Surf          
	  1.000e+10  moles
	                                   Mole                     Log
	Species               Moles    Fraction    Molality    Molality

	Surf              1.000e+10       1.000   1.000e+10      10.000
	SurfA             6.790e-10           0  6.790e-10      -9.168

-----------------------------Solution composition------------------------------

	Elements           Molality       Moles

	A                 6.790e-10   6.790e-10

----------------------------Description of solution----------------------------

                                       pH  =   7.000      Charge balance
                                       pe  =  10.745      Adjusted to redox equilibrium
                        Activity of water  =   1.000
                           Ionic strength  =   1.001e-07
                       Mass of water (kg)  =   1.000e+00
                 Total alkalinity (eq/kg)  =   1.082e-10
                    Total carbon (mol/kg)  =   0 
                       Total CO2 (mol/kg)  =   0 
                      Temperature (deg C)  =  25.000
                  Electrical balance (eq)  =  -1.082e-10
 Percent error, 100*(Cat-|An|)/(Cat+|An|)  =  -0.05
                               Iterations  =   5
                                  Total H  = 1.110124e+02
                                  Total O  = 5.550622e+01

----------------------------Distribution of species----------------------------

                                                   Log       Log         Log 
   Species                 Molality    Activity  Molality  Activity     Gamma

   OH-                    1.001e-07   1.001e-07    -6.999    -7.000         0
   H+                     1.000e-07   1.000e-07    -7.000    -7.000         0
   H2O                    5.551e+01   1.000e+00     1.744         0        0
A                6.790e-10
   A                      6.790e-10   6.790e-10    -9.168    -9.168         0
H(0)             4.589e-39
   H2                     2.294e-39   2.294e-39   -38.639   -38.639         0
O(0)             1.584e-15
   O2                     7.918e-16   7.918e-16   -15.101   -15.101         0

------------------------------Saturation indices-------------------------------

	Phase               SI log IAP  log KT

	H2(g)           -35.49  -38.64   -3.15  H2
	H2O(g)           -1.51       0   1.51  H2O
	O2(g)           -12.14  -15.10   -2.96  O2

Time 120. Cell 3: x=          0.004	y=              0	z=              0
Using solution 3.
Using surface 3.
Using kinetics 3.

Kinetics.

	Time:      120 seconds
	Time step: 0.4 seconds

	Rate name       Delta Moles Total Moles   Reactant        Coefficient

	A_decay           7.265e-11   1.087e-03   A                         1

------------------------------Surface composition------------------------------

Surf          
	  0 Surface charge, eq
Surf          
	  1.000e+10  moles
	                                   Mole                     Log
	Species               Moles    Fraction    Molality    Molality

	Surf              1.000e+10       1.000   1.000e+10      10.000
	SurfA             9.045e-09           0  9.045e-09      -8.044

-----------------------------Solution composition------------------------------

	Elements           Molality       Moles

	A                 9.045e-09   9.045e-09

----------------------------Description of solution----------------------------

                                       pH  =   7.000      Charge balance
                                       pe  =  10.929      Adjusted to redox equilibrium
                        Activity of water  =   1.000
                           Ionic strength  =   1.001e-07
                       Mass of water (kg)  =   1.000e+00
                 Total alkalinity (eq/kg)  =   1.082e-10
                    Total carbon (mol/kg)  =   0 
                       Total CO2 (mol/kg)  =   0 
                      Temperature (deg C)  =  25.000
                  Electrical balance (eq)  =  -1.082e-10
 Percent error, 100*(Cat-|An|)/(Cat+|An|)  =  -0.05
                               Iterations  =   5
                                  Total H  = 1.110124e+02
                                  Total O  = 5.550622e+01

----------------------------Distribution of species----------------------------

                                                   Log       Log         Log 
   Species                 Molality    Activity  Molality  Activity     Gamma

   OH-                    1.001e-07   1.001e-07    -6.999    -7.000         0
   H+                     1.000e-07   1.000e-07    -7.000    -7.000         0
   H2O                    5.551e+01   1.000e+00     1.744         0        0
A                9.045e-09
   A                      9.045e-09   9.045e-09    -8.044    -8.044         0
H(0)             1.959e-39
   H2                     9.796e-40   9.796e-40   -39.009   -39.009         0
O(0)             8.689e-15
   O2                     4.345e-15   4.345e-15   -14.362   -14.362         0

------------------------------Saturation indices-------------------------------

	Phase               SI log IAP  log KT

	H2(g)           -35.86  -39.01   -3.15  H2
	H2O(g)           -1.51       0   1.51  H2O
	O2(g)           -11.40  -14.36   -2.96  O2

Time 120. Cell 4: x=          0.006	y=              0	z=              0
Using solution 4.
Using surface 4.
Using kinetics 4.

Kinetics.

	Time:      120 seconds
	Time step: 0.4 seconds

	Rate name       Delta Moles Total Moles   Reactant        Coefficient

	A_decay           4.979e-10   1.045e-03   A                         1

------------------------------Surface composition------------------------------

Surf          
	  0 Surface charge, eq
Surf          
	  1.000e+10  moles
	                                   Mole                     Log
	Species               Moles    Fraction    Molality    Molality

	Surf              1.000e+10       1.000   1.000e+10      10.000
	SurfA             6.199e-08           0  6.199e-08      -7.208

-----------------------------Solution composition------------------------------

	Elements           Molality       Moles

	A                 6.199e-08   6.199e-08

----------------------------Description of solution----------------------------

                                       pH  =   7.000      Charge balance
                                       pe  =  10.929      Adjusted to redox equilibrium
                        Activity of water  =   1.000
                           Ionic strength  =   1.001e-07
                       Mass of water (kg)  =   1.000e+00
                 Total alkalinity (eq/kg)  =   1.082e-10
                    Total carbon (mol/kg)  =   0 
                       Total CO2 (mol/kg)  =   0 
                      Temperature (deg C)  =  25.000
                  Electrical balance (eq)  =  -1.082e-10
 Percent error, 100*(Cat-|An|)/(Cat+|An|)  =  -0.05
                               Iterations  =   5
                                  Total H  = 1.110124e+02
                                  Total O  = 5.550622e+01

----------------------------Distribution of species----------------------------

                                                   Log       Log         Log 
   Species                 Molality    Activity  Molality  Activity     Gamma

   OH-                    1.001e-07   1.001e-07    -6.999    -7.000         0
   H+                     1.000e-07   1.000e-07    -7.000    -7.000         0
   H2O                    5.551e+01   1.000e+00     1.744         0        0
A                6.199e-08
   A                      6.199e-08   6.199e-08    -7.208    -7.208         0
H(0)             1.959e-39
   H2                     9.796e-40   9.796e-40   -39.009   -39.009         0
O(0)             8.689e-15
   O2                     4.345e-15   4.345e-15   -14.362   -14.362         0

------------------------------Saturation indices-------------------------------

	Phase               SI log IAP  log KT

	H2(g)           -35.86  -39.01   -3.15  H2
	H2O(g)           -1.51       0   1.51  H2O
	O2(g)           -11.40  -14.36   -2.96  O2

Time 120. Cell 5: x=          0.008	y=              0	z=              0
Using solution 5.
Using surface 5.
Using kinetics 5.

Kinetics.

	Time:      120 seconds
	Time step: 0.4 seconds

	Rate name       Delta Moles Total Moles   Reactant        Coefficient

	A_decay           2.321e-09   1.005e-03   A                         1

------------------------------Surface composition------------------------------

Surf          
	  0 Surface charge, eq
Surf          
	  1.000e+10  moles
	                                   Mole                     Log
	Species               Moles    Fraction    Molality    Molality

	Surf              1.000e+10       1.000   1.000e+10      10.000
	SurfA             2.890e-07           0  2.890e-07      -6.539

-----------------------------Solution composition------------------------------

	Elements           Molality       Moles

	A                 2.890e-07   2.890e-07

----------------------------Description of solution----------------------------

                                       pH  =   7.000      Charge balance
                                       pe  =  10.929      Adjusted to redox equilibrium
                        Activity of water  =   1.000
                           Ionic strength  =   1.001e-07
                       Mass of water (kg)  =   1.000e+00
                 Total alkalinity (eq/kg)  =   1.082e-10
                    Total carbon (mol/kg)  =   0 
                       Total CO2 (mol/kg)  =   0 
                      Temperature (deg C)  =  25.000
                  Electrical balance (eq)  =  -1.082e-10
 Percent error, 100*(Cat-|An|)/(Cat+|An|)  =  -0.05
                               Iterations  =   5
                                  Total H  = 1.110124e+02
                                  Total O  = 5.550622e+01

----------------------------Distribution of species----------------------------

                                                   Log       Log         Log 
   Species                 Molality    Activity  Molality  Activity     Gamma

   OH-                    1.001e-07   1.001e-07    -6.999    -7.000         0
   H+                     1.000e-07   1.000e-07    -7.000    -7.000         0
   H2O                    5.551e+01   1.000e+00     1.744         0        0
A                2.890e-07
   A                      2.890e-07   2.890e-07    -6.539    -6.539         0
H(0)             1.959e-39
   H2                     9.796e-40   9.796e-40   -39.009   -39.009         0
O(0)             8.689e-15
   O2                     4.345e-15   4.345e-15   -14.362   -14.362         0

------------------------------Saturation indices-------------------------------

	Phase               SI log IAP  log KT

	H2(g)           -35.86  -39.01   -3.15  H2
	H2O(g)           -1.51       0   1.51  H2O
	O2(g)           -11.40  -14.36   -2.96  O2

Time 120. Cell 6: x=           0.01	y=              0	z=              0
Using solution 6.
Using surface 6.
Using kinetics 6.

Kinetics.

	Time:      120 seconds
	Time step: 0.4 seconds

	Rate name       Delta Moles Total Moles   Reactant        Coefficient

	A_decay           8.258e-09   9.660e-04   A                         1

------------------------------Surface composition------------------------------

Surf          
	  0 Surface charge, eq
Surf          
	  1.000e+10  moles
	                                   Mole                     Log
	Species               Moles    Fraction    Molality    Molality

	Surf              1.000e+10       1.000   1.000e+10      10.000
	SurfA             1.028e-06           0  1.028e-06      -5.988

-----------------------------Solution composition------------------------------

	Elements           Molality       Moles

	A                 1.028e-06   1.028e-06

----------------------------Description of solution----------------------------

                                       pH  =   7.000      Charge balance
                                       pe  =  10.994      Adjusted to redox equilibrium
                        Activity of water  =   1.000
                           Ionic strength  =   1.001e-07
                       Mass of water (kg)  =   1.000e+00
                 Total alkalinity (eq/kg)  =   1.082e-10
                    Total carbon (mol/kg)  =   0 
                       Total CO2 (mol/kg)  =   0 
                      Temperature (deg C)  =  25.000
                  Electrical balance (eq)  =  -1.082e-10
 Percent error, 100*(Cat-|An|)/(Cat+|An|)  =  -0.05
                               Iterations  =   5
                                  Total H  = 1.110124e+02
                                  Total O  = 5.550622e+01

----------------------------Distribution of species----------------------------

                                                   Log       Log         Log 
   Species                 Molality    Activity  Molality  Activity     Gamma

   OH-                    1.001e-07   1.001e-07    -6.999    -7.000         0
   H+                     1.000e-07   1.000e-07    -7.000    -7.000         0
   H2O                    5.551e+01   1.000e+00     1.744         0        0
A                1.028e-06
   A                      1.028e-06   1.028e-06    -5.988    -5.988         0
H(0)             1.453e-39
   H2                     7.265e-40   7.265e-40   -39.139   -39.139         0
O(0)             1.579e-14
   O2                     7.897e-15   7.897e-15   -14.103   -14.103         0

------------------------------Saturation indices-------------------------------

	Phase               SI log IAP  log KT

	H2(g)           -35.99  -39.14   -3.15  H2
	H2O(g)           -1.51       0   1.51  H2O
	O2(g)           -11.14  -14.10   -2.96  O2

Time 120. Cell 7: x=          0.012	y=              0	z=              0
Using solution 7.
Using surface 7.
Using kinetics 7.

Kinetics.

	Time:      120 seconds
	Time step: 0.4 seconds

	Rate name       Delta Moles Total Moles   Reactant        Coefficient

	A_decay           2.390e-08   9.287e-04   A                         1

------------------------------Surface composition------------------------------

Surf          
	  0 Surface charge, eq
Surf          
	  1.000e+10  moles
	                                   Mole                     Log
	Species               Moles    Fraction    Molality    Molality

	Surf              1.000e+10       1.000   1.000e+10      10.000
	SurfA             2.975e-06           0  2.975e-06      -5.526

-----------------------------Solution composition------------------------------

	Elements           Molality       Moles

	A                 2.975e-06   2.975e-06

----------------------------Description of solution----------------------------

                                       pH  =   7.000      Charge balance
                                       pe  =  10.994      Adjusted to redox equilibrium
                        Activity of water  =   1.000
                           Ionic strength  =   1.001e-07
                       Mass of water (kg)  =   1.000e+00
                 Total alkalinity (eq/kg)  =   1.082e-10
                    Total carbon (mol/kg)  =   0 
                       Total CO2 (mol/kg)  =   0 
                      Temperature (deg C)  =  25.000
                  Electrical balance (eq)  =  -1.082e-10
 Percent error, 100*(Cat-|An|)/(Cat+|An|)  =  -0.05
                               Iterations  =   5
                                  Total H  = 1.110124e+02
                                  Total O  = 5.550622e+01

----------------------------Distribution of species----------------------------

                                                   Log       Log         Log 
   Species                 Molality    Activity  Molality  Activity     Gamma

   OH-                    1.001e-07   1.001e-07    -6.999    -7.000         0
   H+                     1.000e-07   1.000e-07    -7.000    -7.000         0
   H2O                    5.551e+01   1.000e+00     1.744         0        0
A                2.975e-06
   A                      2.975e-06   2.975e-06    -5.526    -5.526         0
H(0)             1.453e-39
   H2                     7.265e-40   7.265e-40   -39.139   -39.139         0
O(0)             1.579e-14
   O2                     7.897e-15   7.897e-15   -14.103   -14.103         0

------------------------------Saturation indices-------------------------------

	Phase               SI log IAP  log KT

	H2(g)           -35.99  -39.14   -3.15  H2
	H2O(g)           -1.51       0   1.51  H2O
	O2(g)           -11.14  -14.10   -2.96  O2

Time 120. Cell 8: x=          0.014	y=              0	z=              0
Using solution 8.
Using surface 8.
Using kinetics 8.

Kinetics.

	Time:      120 seconds
	Time step: 0.4 seconds

	Rate name       Delta Moles Total Moles   Reactant        Coefficient

	A_decay           5.857e-08   8.925e-04   A                         1

------------------------------Surface composition------------------------------

Surf          
	  0 Surface charge, eq
Surf          
	  1.000e+10  moles
	                                   Mole                     Log
	Species               Moles    Fraction    Molality    Molality

	Surf              1.000e+10       1.000   1.000e+10      10.000
	SurfA             7.292e-06           0  7.292e-06      -5.137

-----------------------------Solution composition------------------------------

	Elements           Molality       Moles

	A                 7.292e-06   7.292e-06

----------------------------Description of solution----------------------------

                                       pH  =   7.000      Charge balance
                                       pe  =  10.994      Adjusted to redox equilibrium
                        Activity of water  =   1.000
                           Ionic strength  =   1.001e-07
                       Mass of water (kg)  =   1.000e+00
                 Total alkalinity (eq/kg)  =   1.082e-10
                    Total carbon (mol/kg)  =   0 
                       Total CO2 (mol/kg)  =   0 
                      Temperature (deg C)  =  25.000
                  Electrical balance (eq)  =  -1.082e-10
 Percent error, 100*(Cat-|An|)/(Cat+|An|)  =  -0.05
                               Iterations  =   5
                                  Total H  = 1.110124e+02
                                  Total O  = 5.550622e+01

----------------------------Distribution of species----------------------------

                                                   Log       Log         Log 
   Species                 Molality    Activity  Molality  Activity     Gamma

   OH-                    1.001e-07   1.001e-07    -6.999    -7.000         0
   H+                     1.000e-07   1.000e-07    -7.000    -7.000         0
   H2O                    5.551e+01   1.000e+00     1.744         0        0
A                7.292e-06
   A                      7.292e-06   7.292e-06    -5.137    -5.137         0
H(0)             1.453e-39
   H2                     7.265e-40   7.265e-40   -39.139   -39.139         0
O(0)             1.579e-14
   O2                     7.897e-15   7.897e-15   -14.103   -14.103         0

------------------------------Saturation indices-------------------------------

	Phase               SI log IAP  log KT

	H2(g)           -35.99  -39.14   -3.15  H2
	H2O(g)           -1.51       0   1.51  H2O
	O2(g)           -11.14  -14.10   -2.96  O2

Time 120. Cell 9: x=          0.016	y=              0	z=              0
Using solution 9.
Using surface 9.
Using kinetics 9.

Kinetics.

	Time:      120 seconds
	Time step: 0.4 seconds

	Rate name       Delta Moles Total Moles   Reactant        Coefficient

	A_decay           1.251e-07   8.570e-04   A                         1

------------------------------Surface composition------------------------------

Surf          
	  0 Surface charge, eq
Surf          
	  1.000e+10  moles
	                                   Mole                     Log
	Species               Moles    Fraction    Molality    Molality

	Surf              1.000e+10       1.000   1.000e+10      10.000
	SurfA             1.557e-05           0  1.557e-05      -4.808

-----------------------------Solution composition------------------------------

	Elements           Molality       Moles

	A                 1.557e-05   1.557e-05

----------------------------Description of solution----------------------------

                                       pH  =   7.000      Charge balance
                                       pe  =  10.994      Adjusted to redox equilibrium
                        Activity of water  =   1.000
                           Ionic strength  =   1.001e-07
                       Mass of water (kg)  =   1.000e+00
                 Total alkalinity (eq/kg)  =   1.082e-10
                    Total carbon (mol/kg)  =   0 
                       Total CO2 (mol/kg)  =   0 
                      Temperature (deg C)  =  25.000
                  Electrical balance (eq)  =  -1.082e-10
 Percent error, 100*(Cat-|An|)/(Cat+|An|)  =  -0.05
                               Iterations  =   5
                                  Total H  = 1.110124e+02
                                  Total O  = 5.550622e+01

----------------------------Distribution of species----------------------------

                                                   Log       Log         Log 
   Species                 Molality    Activity  Molality  Activity     Gamma

   OH-                    1.001e-07   1.001e-07    -6.999    -7.000         0
   H+                     1.000e-07   1.000e-07    -7.000    -7.000         0
   H2O                    5.551e+01   1.000e+00     1.744         0        0
A                1.557e-05
   A                      1.557e-05   1.557e-05    -4.808    -4.808         0
H(0)             1.453e-39
   H2                     7.265e-40   7.265e-40   -39.139   -39.139         0
O(0)             1.580e-14
   O2                     7.898e-15   7.898e-15   -14.103   -14.103         0

------------------------------Saturation indices-------------------------------

	Phase               SI log IAP  log KT

	H2(g)           -35.99  -39.14   -3.15  H2
	H2O(g)           -1.51       0   1.51  H2O
	O2(g)           -11.14  -14.10   -2.96  O2

Time 120. Cell 10: x=          0.018	y=              0	z=              0
Using solution 10.
Using surface 10.
Using kinetics 10.

Kinetics.

	Time:      120 seconds
	Time step: 0.4 seconds

	Rate name       Delta Moles Total Moles   Reactant        Coefficient

	A_decay           2.375e-07   8.218e-04   A                         1

------------------------------Surface composition------------------------------

Surf          
	  0 Surface charge, eq
Surf          
	  1.000e+10  moles
	                                   Mole                     Log
	Species               Moles    Fraction    Molality    Molality

	Surf              1.000e+10       1.000   1.000e+10      10.000
	SurfA             2.957e-05           0  2.957e-05      -4.529

-----------------------------Solution composition------------------------------

	Elements           Molality       Moles

	A                 2.957e-05   2.957e-05

----------------------------Description of solution----------------------------

                                       pH  =   7.000      Charge balance
                                       pe  =  10.994      Adjusted to redox equilibrium
                        Activity of water  =   1.000
                           Ionic strength  =   1.001e-07
                       Mass of water (kg)  =   1.000e+00
                 Total alkalinity (eq/kg)  =   1.082e-10
                    Total carbon (mol/kg)  =   0 
                       Total CO2 (mol/kg)  =   0 
                      Temperature (deg C)  =  25.000
                  Electrical balance (eq)  =  -1.082e-10
 Percent error, 100*(Cat-|An|)/(Cat+|An|)  =  -0.05
                               Iterations  =   5
                                  Total H  = 1.110124e+02
                                  Total O  = 5.550622e+01

----------------------------Distribution of species----------------------------

                                                   Log       Log         Log 
   Species                 Molality    Activity  Molality  Activity     Gamma

   OH-                    1.001e-07   1.001e-07    -6.999    -7.000         0
   H+                     1.000e-07   1.000e-07    -7.000    -7.000         0
   H2O                    5.551e+01   1.000e+00     1.744         0        0
A                2.957e-05
   A                      2.957e-05   2.957e-05    -4.529    -4.529         0
H(0)             1.453e-39
   H2                     7.265e-40   7.265e-40   -39.139   -39.139         0
O(0)             1.580e-14
   O2                     7.899e-15   7.899e-15   -14.102   -14.102         0

------------------------------Saturation indices-------------------------------

	Phase               SI log IAP  log KT

	H2(g)           -35.99  -39.14   -3.15  H2
	H2O(g)           -1.51       0   1.51  H2O
	O2(g)           -11.14  -14.10   -2.96  O2

Time 120. Cell 11: x=           0.02	y=              0	z=              0
Using solution 11.
Using surface 11.
Using kinetics 11.

Kinetics.

	Time:      120 seconds
	Time step: 0.4 seconds

	Rate name       Delta Moles Total Moles   Reactant        Coefficient

	A_decay           4.078e-07   7.863e-04   A                         1

------------------------------Surface composition------------------------------

Surf          
	  0 Surface charge, eq
Surf          
	  1.000e+10  moles
	                                   Mole                     Log
	Species               Moles    Fraction    Molality    Molality

	Surf              1.000e+10       1.000   1.000e+10      10.000
	SurfA             5.077e-05           0  5.077e-05      -4.294

-----------------------------Solution composition------------------------------

	Elements           Molality       Moles

	A                 5.077e-05   5.077e-05

----------------------------Description of solution----------------------------

                                       pH  =   7.000      Charge balance
                                       pe  =  10.994      Adjusted to redox equilibrium
                        Activity of water  =   1.000
                           Ionic strength  =   1.001e-07
                       Mass of water (kg)  =   1.000e+00
                 Total alkalinity (eq/kg)  =   1.082e-10
                    Total carbon (mol/kg)  =   0 
                       Total CO2 (mol/kg)  =   0 
                      Temperature (deg C)  =  25.000
                  Electrical balance (eq)  =  -1.082e-10
 Percent error, 100*(Cat-|An|)/(Cat+|An|)  =  -0.05
                               Iterations  =   5
                                  Total H  = 1.110124e+02
                                  Total O  = 5.550622e+01

----------------------------Distribution of species----------------------------

                                                   Log       Log         Log 
   Species                 Molality    Activity  Molality  Activity     Gamma

   OH-                    1.001e-07   1.001e-07    -6.999    -7.000         0
   H+                     1.000e-07   1.000e-07    -7.000    -7.000         0
   H2O                    5.551e+01   1.000e+00     1.744         0        0
A                5.077e-05
   A                      5.077e-05   5.077e-05    -4.294    -4.294         0
H(0)             1.453e-39
   H2                     7.263e-40   7.263e-40   -39.139   -39.139         0
O(0)             1.580e-14
   O2                     7.902e-15   7.902e-15   -14.102   -14.102         0

------------------------------Saturation indices-------------------------------

	Phase               SI log IAP  log KT

	H2(g)           -35.99  -39.14   -3.15  H2
	H2O(g)           -1.51       0   1.51  H2O
	O2(g)           -11.14  -14.10   -2.96  O2

Time 120. Cell 12: x=          0.022	y=              0	z=              0
Using solution 12.
Using surface 12.
Using kinetics 12.

Kinetics.

	Time:      120 seconds
	Time step: 0.4 seconds

	Rate name       Delta Moles Total Moles   Reactant        Coefficient

	A_decay           6.413e-07   7.500e-04   A                         1

------------------------------Surface composition------------------------------

Surf          
	  0 Surface charge, eq
Surf          
	  1.000e+10  moles
	                                   Mole                     Log
	Species               Moles    Fraction    Molality    Molality

	Surf              1.000e+10       1.000   1.000e+10      10.000
	SurfA             7.984e-05           0  7.984e-05      -4.098

-----------------------------Solution composition------------------------------

	Elements           Molality       Moles

	A                 7.984e-05   7.984e-05

----------------------------Description of solution----------------------------

                                       pH  =   7.000      Charge balance
                                       pe  =  10.995      Adjusted to redox equilibrium
                        Activity of water  =   1.000
                           Ionic strength  =   1.001e-07
                       Mass of water (kg)  =   1.000e+00
                 Total alkalinity (eq/kg)  =   1.082e-10
                    Total carbon (mol/kg)  =   0 
                       Total CO2 (mol/kg)  =   0 
                      Temperature (deg C)  =  25.000
                  Electrical balance (eq)  =  -1.082e-10
 Percent error, 100*(Cat-|An|)/(Cat+|An|)  =  -0.05
                               Iterations  =   5
                                  Total H  = 1.110124e+02
                                  Total O  = 5.550622e+01

----------------------------Distribution of species----------------------------

                                                   Log       Log         Log 
   Species                 Molality    Activity  Molality  Activity     Gamma

   OH-                    1.001e-07   1.001e-07    -6.999    -7.000         0
   H+                     1.000e-07   1.000e-07    -7.000    -7.000         0
   H2O                    5.551e+01   1.000e+00     1.744         0        0
A                7.984e-05
   A                      7.984e-05   7.984e-05    -4.098    -4.098         0
H(0)             1.452e-39
   H2                     7.259e-40   7.259e-40   -39.139   -39.139         0
O(0)             1.582e-14
   O2                     7.912e-15   7.912e-15   -14.102   -14.102         0

------------------------------Saturation indices-------------------------------

	Phase               SI log IAP  log KT

	H2(g)           -35.99  -39.14   -3.15  H2
	H2O(g)           -1.51       0   1.51  H2O
	O2(g)           -11.14  -14.10   -2.96  O2

Time 120. Cell 13: x=          0.024	y=              0	z=              0
Using solution 13.
Using surface 13.
Using kinetics 13.

Kinetics.

	Time:      120 seconds
	Time step: 0.4 seconds

	Rate name       Delta Moles Total Moles   Reactant        Coefficient

	A_decay           9.339e-07   7.122e-04   A                         1

------------------------------Surface composition------------------------------

Surf          
	  0 Surface charge, eq
Surf          
	  1.000e+10  moles
	                                   Mole                     Log
	Species               Moles    Fraction    Molality    Molality

	Surf              1.000e+10       1.000   1.000e+10      10.000
	SurfA             1.163e-04           0  1.163e-04      -3.935

-----------------------------Solution composition------------------------------

	Elements           Molality       Moles

	A                 1.163e-04   1.163e-04

----------------------------Description of solution----------------------------

                                       pH  =   7.000      Charge balance
                                       pe  =  10.995      Adjusted to redox equilibrium
                        Activity of water  =   1.000
                           Ionic strength  =   1.001e-07
                       Mass of water (kg)  =   1.000e+00
                 Total alkalinity (eq/kg)  =   1.082e-10
                    Total carbon (mol/kg)  =   0 
                       Total CO2 (mol/kg)  =   0 
                      Temperature (deg C)  =  25.000
                  Electrical balance (eq)  =  -1.082e-10
 Percent error, 100*(Cat-|An|)/(Cat+|An|)  =  -0.05
                               Iterations  =   5
                                  Total H  = 1.110124e+02
                                  Total O  = 5.550622e+01

----------------------------Distribution of species----------------------------

                                                   Log       Log         Log 
   Species                 Molality    Activity  Molality  Activity     Gamma

   OH-                    1.001e-07   1.001e-07    -6.999    -7.000         0
   H+                     1.000e-07   1.000e-07    -7.000    -7.000         0
   H2O                    5.551e+01   1.000e+00     1.744         0        0
A                1.163e-04
   A                      1.163e-04   1.163e-04    -3.935    -3.935         0
H(0)             1.449e-39
   H2                     7.247e-40   7.247e-40   -39.140   -39.140         0
O(0)             1.588e-14
   O2                     7.938e-15   7.938e-15   -14.100   -14.100         0

------------------------------Saturation indices-------------------------------

	Phase               SI log IAP  log KT

	H2(g)           -35.99  -39.14   -3.15  H2
	H2O(g)           -1.51       0   1.51  H2O
	O2(g)           -11.14  -14.10   -2.96  O2

Time 120. Cell 14: x=          0.026	y=              0	z=              0
Using solution 14.
Using surface 14.
Using kinetics 14.

Kinetics.

	Time:      120 seconds
	Time step: 0.4 seconds

	Rate name       Delta Moles Total Moles   Reactant        Coefficient

	A_decay           1.271e-06   6.727e-04   A                         1

------------------------------Surface composition------------------------------

Surf          
	  0 Surface charge, eq
Surf          
	  1.000e+10  moles
	                                   Mole                     Log
	Species               Moles    Fraction    Molality    Molality

	Surf              1.000e+10       1.000   1.000e+10      10.000
	SurfA             1.583e-04           0  1.583e-04      -3.801

-----------------------------Solution composition------------------------------

	Elements           Molality       Moles

	A                 1.583e-04   1.583e-04

----------------------------Description of solution----------------------------

                                       pH  =   7.000      Charge balance
                                       pe  =  11.036      Adjusted to redox equilibrium
                        Activity of water  =   1.000
                           Ionic strength  =   1.001e-07
                       Mass of water (kg)  =   1.000e+00
                 Total alkalinity (eq/kg)  =   1.082e-10
                    Total carbon (mol/kg)  =   0 
                       Total CO2 (mol/kg)  =   0 
                      Temperature (deg C)  =  25.000
                  Electrical balance (eq)  =  -1.082e-10
 Percent error, 100*(Cat-|An|)/(Cat+|An|)  =  -0.05
                               Iterations  =   5
                                  Total H  = 1.110124e+02
                                  Total O  = 5.550622e+01

----------------------------Distribution of species----------------------------

                                                   Log       Log         Log 
   Species                 Molality    Activity  Molality  Activity     Gamma

   OH-                    1.001e-07   1.001e-07    -6.999    -7.000         0
   H+                     1.000e-07   1.000e-07    -7.000    -7.000         0
   H2O                    5.551e+01   1.000e+00     1.744         0        0
A                1.583e-04
   A                      1.583e-04   1.583e-04    -3.801    -3.801         0
H(0)             1.201e-39
   H2                     6.007e-40   6.007e-40   -39.221   -39.221         0
O(0)             2.311e-14
   O2                     1.155e-14   1.155e-14   -13.937   -13.937         0

------------------------------Saturation indices-------------------------------

	Phase               SI log IAP  log KT

	H2(g)           -36.07  -39.22   -3.15  H2
	H2O(g)           -1.51       0   1.51  H2O
	O2(g)           -10.98  -13.94   -2.96  O2

Time 120. Cell 15: x=          0.028	y=              0	z=              0
Using solution 15.
Using surface 15.
Using kinetics 15.

Kinetics.

	Time:      120 seconds
	Time step: 0.4 seconds

	Rate name       Delta Moles Total Moles   Reactant        Coefficient

	A_decay           1.631e-06   6.313e-04   A                         1

------------------------------Surface composition------------------------------

Surf          
	  0 Surface charge, eq
Surf          
	  1.000e+10  moles
	                                   Mole                     Log
	Species               Moles    Fraction    Molality    Molality

	Surf              1.000e+10       1.000   1.000e+10      10.000
	SurfA             2.030e-04           0  2.030e-04      -3.693

-----------------------------Solution composition------------------------------

	Elements           Molality       Moles

	A                 2.030e-04   2.030e-04

----------------------------Description of solution----------------------------

                                       pH  =   7.000      Charge balance
                                       pe  =  11.037      Adjusted to redox equilibrium
                        Activity of water  =   1.000
                           Ionic strength  =   1.001e-07
                       Mass of water (kg)  =   1.000e+00
                 Total alkalinity (eq/kg)  =   1.082e-10
                    Total carbon (mol/kg)  =   0 
                       Total CO2 (mol/kg)  =   0 
                      Temperature (deg C)  =  25.000
                  Electrical balance (eq)  =  -1.082e-10
 Percent error, 100*(Cat-|An|)/(Cat+|An|)  =  -0.05
                               Iterations  =   5
                                  Total H  = 1.110124e+02
                                  Total O  = 5.550622e+01

----------------------------Distribution of species----------------------------

                                                   Log       Log         Log 
   Species                 Molality    Activity  Molality  Activity     Gamma

   OH-                    1.001e-07   1.001e-07    -6.999    -7.000         0
   H+                     1.000e-07   1.000e-07    -7.000    -7.000         0
   H2O                    5.551e+01   1.000e+00     1.744         0        0
A                2.030e-04
   A                      2.030e-04   2.030e-04    -3.693    -3.693         0
H(0)             1.194e-39
   H2                     5.970e-40   5.970e-40   -39.224   -39.224         0
O(0)             2.339e-14
   O2                     1.170e-14   1.170e-14   -13.932   -13.932         0

------------------------------Saturation indices-------------------------------

	Phase               SI log IAP  log KT

	H2(g)           -36.07  -39.22   -3.15  H2
	H2O(g)           -1.51       0   1.51  H2O
	O2(g)           -10.97  -13.93   -2.96  O2

Time 120. Cell 16: x=           0.03	y=              0	z=              0
Using solution 16.
Using surface 16.
Using kinetics 16.

Kinetics.

	Time:      120 seconds
	Time step: 0.4 seconds

	Rate name       Delta Moles Total Moles   Reactant        Coefficient

	A_decay           1.985e-06   5.880e-04   A                         1

------------------------------Surface composition------------------------------

Surf          
	  0 Surface charge, eq
Surf          
	  1.000e+10  moles
	                                   Mole                     Log
	Species               Moles    Fraction    Molality    Molality

	Surf              1.000e+10       1.000   1.000e+10      10.000
	SurfA             2.472e-04           0  2.472e-04      -3.607

-----------------------------Solution composition------------------------------

	Elements           Molality       Moles

	A                 2.472e-04   2.472e-04

----------------------------Description of solution----------------------------

                                       pH  =   7.000      Charge balance
                                       pe  =  11.068      Adjusted to redox equilibrium
                        Activity of water  =   1.000
                           Ionic strength  =   1.001e-07
                       Mass of water (kg)  =   1.000e+00
                 Total alkalinity (eq/kg)  =   1.082e-10
                    Total carbon (mol/kg)  =   0 
                       Total CO2 (mol/kg)  =   0 
                      Temperature (deg C)  =  25.000
                  Electrical balance (eq)  =  -1.082e-10
 Percent error, 100*(Cat-|An|)/(Cat+|An|)  =  -0.05
                               Iterations  =   5
                                  Total H  = 1.110124e+02
                                  Total O  = 5.550622e+01

----------------------------Distribution of species----------------------------

                                                   Log       Log         Log 
   Species                 Molality    Activity  Molality  Activity     Gamma

   OH-                    1.001e-07   1.001e-07    -6.999    -7.000         0
   H+                     1.000e-07   1.000e-07    -7.000    -7.000         0
   H2O                    5.551e+01   1.000e+00     1.744         0        0
A                2.472e-04
   A                      2.472e-04   2.472e-04    -3.607    -3.607         0
H(0)             1.036e-39
   H2                     5.178e-40   5.178e-40   -39.286   -39.286         0
O(0)             3.110e-14
   O2                     1.555e-14   1.555e-14   -13.808   -13.808         0

------------------------------Saturation indices-------------------------------

	Phase               SI log IAP  log KT

	H2(g)           -36.14  -39.29   -3.15  H2
	H2O(g)           -1.51       0   1.51  H2O
	O2(g)           -10.85  -13.81   -2.96  O2

Time 120. Cell 17: x=          0.032	y=              0	z=              0
Using solution 17.
Using surface 17.
Using kinetics 17.

Kinetics.

	Time:      120 seconds
	Time step: 0.4 seconds

	Rate name       Delta Moles Total Moles   Reactant        Coefficient

	A_decay           2.309e-06   5.433e-04   A                         1

------------------------------Surface composition------------------------------

Surf          
	  0 Surface charge, eq
Surf          
	  1.000e+10  moles
	                                   Mole                     Log
	Species               Moles    Fraction    Molality    Molality

	Surf              1.000e+10       1.000   1.000e+10      10.000
	SurfA             2.875e-04           0  2.875e-04      -3.541

-----------------------------Solution composition------------------------------

	Elements           Molality       Moles

	A                 2.875e-04   2.875e-04

----------------------------Description of solution----------------------------

                                       pH  =   7.000      Charge balance
                                       pe  =  11.094      Adjusted to redox equilibrium
                        Activity of water  =   1.000
                           Ionic strength  =   1.001e-07
                       Mass of water (kg)  =   1.000e+00
                 Total alkalinity (eq/kg)  =   1.082e-10
                    Total carbon (mol/kg)  =   0 
                       Total CO2 (mol/kg)  =   0 
                      Temperature (deg C)  =  25.000
                  Electrical balance (eq)  =  -1.082e-10
 Percent error, 100*(Cat-|An|)/(Cat+|An|)  =  -0.05
                               Iterations  =   4
                                  Total H  = 1.110124e+02
                                  Total O  = 5.550622e+01

----------------------------Distribution of species----------------------------

                                                   Log       Log         Log 
   Species                 Molality    Activity  Molality  Activity     Gamma

   OH-                    1.001e-07   1.001e-07    -6.999    -7.000         0
   H+                     1.000e-07   1.000e-07    -7.000    -7.000         0
   H2O                    5.551e+01   1.000e+00     1.744         0        0
A                2.875e-04
   A                      2.875e-04   2.875e-04    -3.541    -3.541         0
H(0)             9.202e-40
   H2                     4.601e-40   4.601e-40   -39.337   -39.337         0
O(0)             3.938e-14
   O2                     1.969e-14   1.969e-14   -13.706   -13.706         0

------------------------------Saturation indices-------------------------------

	Phase               SI log IAP  log KT

	H2(g)           -36.19  -39.34   -3.15  H2
	H2O(g)           -1.51       0   1.51  H2O
	O2(g)           -10.75  -13.71   -2.96  O2

Time 120. Cell 18: x=          0.034	y=              0	z=              0
Using solution 18.
Using surface 18.
Using kinetics 18.

Kinetics.

	Time:      120 seconds
	Time step: 0.4 seconds

	Rate name       Delta Moles Total Moles   Reactant        Coefficient

	A_decay           2.578e-06   4.978e-04   A                         1

------------------------------Surface composition------------------------------

Surf          
	  0 Surface charge, eq
Surf          
	  1.000e+10  moles
	                                   Mole                     Log
	Species               Moles    Fraction    Molality    Molality

	Surf              1.000e+10       1.000   1.000e+10      10.000
	SurfA             3.213e-04           0  3.213e-04      -3.493

-----------------------------Solution composition------------------------------

	Elements           Molality       Moles

	A                 3.213e-04   3.213e-04

----------------------------Description of solution----------------------------

                                       pH  =   7.000      Charge balance
                                       pe  =  11.131      Adjusted to redox equilibrium
                        Activity of water  =   1.000
                           Ionic strength  =   1.001e-07
                       Mass of water (kg)  =   1.000e+00
                 Total alkalinity (eq/kg)  =   1.082e-10
                    Total carbon (mol/kg)  =   0 
                       Total CO2 (mol/kg)  =   0 
                      Temperature (deg C)  =  25.000
                  Electrical balance (eq)  =  -1.082e-10
 Percent error, 100*(Cat-|An|)/(Cat+|An|)  =  -0.05
                               Iterations  =   8
                                  Total H  = 1.110124e+02
                                  Total O  = 5.550622e+01

----------------------------Distribution of species----------------------------

                                                   Log       Log         Log 
   Species                 Molality    Activity  Molality  Activity     Gamma

   OH-                    1.001e-07   1.001e-07    -6.999    -7.000         0
   H+                     1.000e-07   1.000e-07    -7.000    -7.000         0
   H2O                    5.551e+01   1.000e+00     1.744         0        0
A                3.213e-04
   A                      3.213e-04   3.213e-04    -3.493    -3.493         0
H(0)             7.734e-40
   H2                     3.867e-40   3.867e-40   -39.413   -39.413         0
O(0)             5.576e-14
   O2                     2.788e-14   2.788e-14   -13.555   -13.555         0

------------------------------Saturation indices-------------------------------

	Phase               SI log IAP  log KT

	H2(g)           -36.26  -39.41   -3.15  H2
	H2O(g)           -1.51       0   1.51  H2O
	O2(g)           -10.59  -13.55   -2.96  O2

Time 120. Cell 19: x=          0.036	y=              0	z=              0
Using solution 19.
Using surface 19.
Using kinetics 19.

Kinetics.

	Time:      120 seconds
	Time step: 0.4 seconds

	Rate name       Delta Moles Total Moles   Reactant        Coefficient

	A_decay           2.784e-06   4.520e-04   A                         1

------------------------------Surface composition------------------------------

Surf          
	  0 Surface charge, eq
Surf          
	  1.000e+10  moles
	                                   Mole                     Log
	Species               Moles    Fraction    Molality    Molality

	Surf              1.000e+10       1.000   1.000e+10      10.000
	SurfA             3.470e-04           0  3.470e-04      -3.460

-----------------------------Solution composition------------------------------

	Elements           Molality       Moles

	A                 3.470e-04   3.470e-04

----------------------------Description of solution----------------------------

                                       pH  =   7.000      Charge balance
                                       pe  =  11.151      Adjusted to redox equilibrium
                        Activity of water  =   1.000
                           Ionic strength  =   1.001e-07
                       Mass of water (kg)  =   1.000e+00
                 Total alkalinity (eq/kg)  =   1.082e-10
                    Total carbon (mol/kg)  =   0 
                       Total CO2 (mol/kg)  =   0 
                      Temperature (deg C)  =  25.000
                  Electrical balance (eq)  =  -1.082e-10
 Percent error, 100*(Cat-|An|)/(Cat+|An|)  =  -0.05
                               Iterations  =   8
                                  Total H  = 1.110124e+02
                                  Total O  = 5.550622e+01

----------------------------Distribution of species----------------------------

                                                   Log       Log         Log 
   Species                 Molality    Activity  Molality  Activity     Gamma

   OH-                    1.001e-07   1.001e-07    -6.999    -7.000         0
   H+                     1.000e-07   1.000e-07    -7.000    -7.000         0
   H2O                    5.551e+01   1.000e+00     1.744         0        0
A                3.470e-04
   A                      3.470e-04   3.470e-04    -3.460    -3.460         0
H(0)             7.076e-40
   H2                     3.538e-40   3.538e-40   -39.451   -39.451         0
O(0)             6.660e-14
   O2                     3.330e-14   3.330e-14   -13.478   -13.478         0

------------------------------Saturation indices-------------------------------

	Phase               SI log IAP  log KT

	H2(g)           -36.30  -39.45   -3.15  H2
	H2O(g)           -1.51       0   1.51  H2O
	O2(g)           -10.52  -13.48   -2.96  O2

Time 120. Cell 20: x=          0.038	y=              0	z=              0
Using solution 20.
Using surface 20.
Using kinetics 20.

Kinetics.

	Time:      120 seconds
	Time step: 0.4 seconds

	Rate name       Delta Moles Total Moles   Reactant        Coefficient

	A_decay           2.918e-06   4.067e-04   A                         1

------------------------------Surface composition------------------------------

Surf          
	  0 Surface charge, eq
Surf          
	  1.000e+10  moles
	                                   Mole                     Log
	Species               Moles    Fraction    Molality    Molality

	Surf              1.000e+10       1.000   1.000e+10      10.000
	SurfA             3.637e-04           0  3.637e-04      -3.439

-----------------------------Solution composition------------------------------

	Elements           Molality       Moles

	A                 3.637e-04   3.637e-04

----------------------------Description of solution----------------------------

                                       pH  =   7.000      Charge balance
                                       pe  =  11.160      Adjusted to redox equilibrium
                        Activity of water  =   1.000
                           Ionic strength  =   1.001e-07
                       Mass of water (kg)  =   1.000e+00
                 Total alkalinity (eq/kg)  =   1.082e-10
                    Total carbon (mol/kg)  =   0 
                       Total CO2 (mol/kg)  =   0 
                      Temperature (deg C)  =  25.000
                  Electrical balance (eq)  =  -1.082e-10
 Percent error, 100*(Cat-|An|)/(Cat+|An|)  =  -0.05
                               Iterations  =   8
                                  Total H  = 1.110124e+02
                                  Total O  = 5.550622e+01

----------------------------Distribution of species----------------------------

                                                   Log       Log         Log 
   Species                 Molality    Activity  Molality  Activity     Gamma

   OH-                    1.001e-07   1.001e-07    -6.999    -7.000         0
   H+                     1.000e-07   1.000e-07    -7.000    -7.000         0
   H2O                    5.551e+01   1.000e+00     1.744         0        0
A                3.637e-04
   A                      3.637e-04   3.637e-04    -3.439    -3.439         0
H(0)             6.773e-40
   H2                     3.386e-40   3.386e-40   -39.470   -39.470         0
O(0)             7.271e-14
   O2                     3.635e-14   3.635e-14   -13.439   -13.439         0

------------------------------Saturation indices-------------------------------

	Phase               SI log IAP  log KT

	H2(g)           -36.32  -39.47   -3.15  H2
	H2O(g)           -1.51       0   1.51  H2O
	O2(g)           -10.48  -13.44   -2.96  O2

Time 120. Cell 21: x=           0.04	y=              0	z=              0
Using solution 21.
Using surface 21.
Using kinetics 21.

Kinetics.

	Time:      120 seconds
	Time step: 0.4 seconds

	Rate name       Delta Moles Total Moles   Reactant        Coefficient

	A_decay           2.981e-06   3.625e-04   A                         1

------------------------------Surface composition------------------------------

Surf          
	  0 Surface charge, eq
Surf          
	  1.000e+10  moles
	                                   Mole                     Log
	Species               Moles    Fraction    Molality    Molality

	Surf              1.000e+10       1.000   1.000e+10      10.000
	SurfA             3.716e-04           0  3.716e-04      -3.430

-----------------------------Solution composition------------------------------

	Elements           Molality       Moles

	A                 3.716e-04   3.716e-04

----------------------------Description of solution----------------------------

                                       pH  =   7.000      Charge balance
                                       pe  =  11.173      Adjusted to redox equilibrium
                        Activity of water  =   1.000
                           Ionic strength  =   1.001e-07
                       Mass of water (kg)  =   1.000e+00
                 Total alkalinity (eq/kg)  =   1.082e-10
                    Total carbon (mol/kg)  =   0 
                       Total CO2 (mol/kg)  =   0 
                      Temperature (deg C)  =  25.000
                  Electrical balance (eq)  =  -1.082e-10
 Percent error, 100*(Cat-|An|)/(Cat+|An|)  =  -0.05
                               Iterations  =   8
                                  Total H  = 1.110124e+02
                                  Total O  = 5.550622e+01

----------------------------Distribution of species----------------------------

                                                   Log       Log         Log 
   Species                 Molality    Activity  Molality  Activity     Gamma

   OH-                    1.001e-07   1.001e-07    -6.999    -7.000         0
   H+                     1.000e-07   1.000e-07    -7.000    -7.000         0
   H2O                    5.551e+01   1.000e+00     1.744         0        0
A                3.716e-04
   A                      3.716e-04   3.716e-04    -3.430    -3.430         0
H(0)             6.371e-40
   H2                     3.186e-40   3.186e-40   -39.497   -39.497         0
O(0)             8.215e-14
   O2                     4.108e-14   4.108e-14   -13.386   -13.386         0

------------------------------Saturation indices-------------------------------

	Phase               SI log IAP  log KT

	H2(g)           -36.35  -39.50   -3.15  H2
	H2O(g)           -1.51       0   1.51  H2O
	O2(g)           -10.43  -13.39   -2.96  O2

Time 120. Cell 22: x=          0.042	y=              0	z=              0
Using solution 22.
Using surface 22.
Using kinetics 22.

Kinetics.

	Time:      120 seconds
	Time step: 0.4 seconds

	Rate name       Delta Moles Total Moles   Reactant        Coefficient

	A_decay           2.978e-06   3.201e-04   A                         1

------------------------------Surface composition------------------------------

Surf          
	  0 Surface charge, eq
Surf          
	  1.000e+10  moles
	                                   Mole                     Log
	Species               Moles    Fraction    Molality    Molality

	Surf              1.000e+10       1.000   1.000e+10      10.000
	SurfA             3.712e-04           0  3.712e-04      -3.430

-----------------------------Solution composition------------------------------

	Elements           Molality       Moles

	A                 3.712e-04   3.712e-04

----------------------------Description of solution----------------------------

                                       pH  =   7.000      Charge balance
                                       pe  =  11.190      Adjusted to redox equilibrium
                        Activity of water  =   1.000
                           Ionic strength  =   1.001e-07
                       Mass of water (kg)  =   1.000e+00
                 Total alkalinity (eq/kg)  =   1.081e-10
                    Total carbon (mol/kg)  =   0 
                       Total CO2 (mol/kg)  =   0 
                      Temperature (deg C)  =  25.000
                  Electrical balance (eq)  =  -1.081e-10
 Percent error, 100*(Cat-|An|)/(Cat+|An|)  =  -0.05
                               Iterations  =   7
                                  Total H  = 1.110124e+02
                                  Total O  = 5.550622e+01

----------------------------Distribution of species----------------------------

                                                   Log       Log         Log 
   Species                 Molality    Activity  Molality  Activity     Gamma

   OH-                    1.001e-07   1.001e-07    -6.999    -7.000         0
   H+                     1.000e-07   1.000e-07    -7.000    -7.000         0
   H2O                    5.551e+01   1.000e+00     1.744         0        0
A                3.712e-04
   A                      3.712e-04   3.712e-04    -3.430    -3.430         0
H(0)             5.892e-40
   H2                     2.946e-40   2.946e-40   -39.531   -39.531         0
O(0)             9.605e-14
   O2                     4.802e-14   4.802e-14   -13.319   -13.319         0

------------------------------Saturation indices-------------------------------

	Phase               SI log IAP  log KT

	H2(g)           -36.38  -39.53   -3.15  H2
	H2O(g)           -1.51       0   1.51  H2O
	O2(g)           -10.36  -13.32   -2.96  O2

Time 120. Cell 23: x=          0.044	y=              0	z=              0
Using solution 23.
Using surface 23.
Using kinetics 23.

Kinetics.

	Time:      120 seconds
	Time step: 0.4 seconds

	Rate name       Delta Moles Total Moles   Reactant        Coefficient

	A_decay           2.918e-06   2.798e-04   A                         1

------------------------------Surface composition------------------------------

Surf          
	  0 Surface charge, eq
Surf          
	  1.000e+10  moles
	                                   Mole                     Log
	Species               Moles    Fraction    Molality    Molality

	Surf              1.000e+10       1.000   1.000e+10      10.000
	SurfA             3.637e-04           0  3.637e-04      -3.439

-----------------------------Solution composition------------------------------

	Elements           Molality       Moles

	A                 3.637e-04   3.637e-04

----------------------------Description of solution----------------------------

                                       pH  =   7.000      Charge balance
                                       pe  =  11.196      Adjusted to redox equilibrium
                        Activity of water  =   1.000
                           Ionic strength  =   1.001e-07
                       Mass of water (kg)  =   1.000e+00
                 Total alkalinity (eq/kg)  =   1.081e-10
                    Total carbon (mol/kg)  =   0 
                       Total CO2 (mol/kg)  =   0 
                      Temperature (deg C)  =  25.000
                  Electrical balance (eq)  =  -1.081e-10
 Percent error, 100*(Cat-|An|)/(Cat+|An|)  =  -0.05
                               Iterations  =   8
                                  Total H  = 1.110124e+02
                                  Total O  = 5.550622e+01

----------------------------Distribution of species----------------------------

                                                   Log       Log         Log 
   Species                 Molality    Activity  Molality  Activity     Gamma

   OH-                    1.001e-07   1.001e-07    -6.999    -7.000         0
   H+                     1.000e-07   1.000e-07    -7.000    -7.000         0
   H2O                    5.551e+01   1.000e+00     1.744         0        0
A                3.637e-04
   A                      3.637e-04   3.637e-04    -3.439    -3.439         0
H(0)             5.738e-40
   H2                     2.869e-40   2.869e-40   -39.542   -39.542         0
O(0)             1.013e-13
   O2                     5.065e-14   5.065e-14   -13.295   -13.295         0

------------------------------Saturation indices-------------------------------

	Phase               SI log IAP  log KT

	H2(g)           -36.39  -39.54   -3.15  H2
	H2O(g)           -1.51       0   1.51  H2O
	O2(g)           -10.34  -13.30   -2.96  O2

Time 120. Cell 24: x=          0.046	y=              0	z=              0
Using solution 24.
Using surface 24.
Using kinetics 24.

Kinetics.

	Time:      120 seconds
	Time step: 0.4 seconds

	Rate name       Delta Moles Total Moles   Reactant        Coefficient

	A_decay           2.809e-06   2.422e-04   A                         1

------------------------------Surface composition------------------------------

Surf          
	  0 Surface charge, eq
Surf          
	  1.000e+10  moles
	                                   Mole                     Log
	Species               Moles    Fraction    Molality    Molality

	Surf              1.000e+10       1.000   1.000e+10      10.000
	SurfA             3.501e-04           0  3.501e-04      -3.456

-----------------------------Solution composition------------------------------

	Elements           Molality       Moles

	A                 3.501e-04   3.501e-04

----------------------------Description of solution----------------------------

                                       pH  =   7.000      Charge balance
                                       pe  =  11.201      Adjusted to redox equilibrium
                        Activity of water  =   1.000
                           Ionic strength  =   1.001e-07
                       Mass of water (kg)  =   1.000e+00
                 Total alkalinity (eq/kg)  =   1.080e-10
                    Total carbon (mol/kg)  =   0 
                       Total CO2 (mol/kg)  =   0 
                      Temperature (deg C)  =  25.000
                  Electrical balance (eq)  =  -1.080e-10
 Percent error, 100*(Cat-|An|)/(Cat+|An|)  =  -0.05
                               Iterations  =   8
                                  Total H  = 1.110124e+02
                                  Total O  = 5.550622e+01

----------------------------Distribution of species----------------------------

                                                   Log       Log         Log 
   Species                 Molality    Activity  Molality  Activity     Gamma

   OH-                    1.001e-07   1.001e-07    -6.999    -7.000         0
   H+                     1.000e-07   1.000e-07    -7.000    -7.000         0
   H2O                    5.551e+01   1.000e+00     1.744         0        0
A                3.501e-04
   A                      3.501e-04   3.501e-04    -3.456    -3.456         0
H(0)             5.608e-40
   H2                     2.804e-40   2.804e-40   -39.552   -39.552         0
O(0)             1.060e-13
   O2                     5.301e-14   5.301e-14   -13.276   -13.276         0

------------------------------Saturation indices-------------------------------

	Phase               SI log IAP  log KT

	H2(g)           -36.40  -39.55   -3.15  H2
	H2O(g)           -1.51       0   1.51  H2O
	O2(g)           -10.32  -13.28   -2.96  O2

Time 120. Cell 25: x=          0.048	y=              0	z=              0
Using solution 25.
Using surface 25.
Using kinetics 25.

Kinetics.

	Time:      120 seconds
	Time step: 0.4 seconds

	Rate name       Delta Moles Total Moles   Reactant        Coefficient

	A_decay           2.660e-06   2.074e-04   A                         1

------------------------------Surface composition------------------------------

Surf          
	  0 Surface charge, eq
Surf          
	  1.000e+10  moles
	                                   Mole                     Log
	Species               Moles    Fraction    Molality    Molality

	Surf              1.000e+10       1.000   1.000e+10      10.000
	SurfA             3.316e-04           0  3.316e-04      -3.479

-----------------------------Solution composition------------------------------

	Elements           Molality       Moles

	A                 3.316e-04   3.316e-04

----------------------------Description of solution----------------------------

                                       pH  =   7.000      Charge balance
                                       pe  =  11.199      Adjusted to redox equilibrium
                        Activity of water  =   1.000
                           Ionic strength  =   1.001e-07
                       Mass of water (kg)  =   1.000e+00
                 Total alkalinity (eq/kg)  =   1.080e-10
                    Total carbon (mol/kg)  =   0 
                       Total CO2 (mol/kg)  =   0 
                      Temperature (deg C)  =  25.000
                  Electrical balance (eq)  =  -1.080e-10
 Percent error, 100*(Cat-|An|)/(Cat+|An|)  =  -0.05
                               Iterations  =   8
                                  Total H  = 1.110124e+02
                                  Total O  = 5.550622e+01

----------------------------Distribution of species----------------------------

                                                   Log       Log         Log 
   Species                 Molality    Activity  Molality  Activity     Gamma

   OH-                    1.001e-07   1.001e-07    -6.999    -7.000         0
   H+                     1.000e-07   1.000e-07    -7.000    -7.000         0
   H2O                    5.551e+01   1.000e+00     1.744         0        0
A                3.316e-04
   A                      3.316e-04   3.316e-04    -3.479    -3.479         0
H(0)             5.667e-40
   H2                     2.834e-40   2.834e-40   -39.548   -39.548         0
O(0)             1.038e-13
   O2                     5.191e-14   5.191e-14   -13.285   -13.285         0

------------------------------Saturation indices-------------------------------

	Phase               SI log IAP  log KT

	H2(g)           -36.40  -39.55   -3.15  H2
	H2O(g)           -1.51       0   1.51  H2O
	O2(g)           -10.32  -13.28   -2.96  O2

Time 120. Cell 26: x=           0.05	y=              0	z=              0
Using solution 26.
Using surface 26.
Using kinetics 26.

Kinetics.

	Time:      120 seconds
	Time step: 0.4 seconds

	Rate name       Delta Moles Total Moles   Reactant        Coefficient

	A_decay           2.484e-06   1.757e-04   A                         1

------------------------------Surface composition------------------------------

Surf          
	  0 Surface charge, eq
Surf          
	  1.000e+10  moles
	                                   Mole                     Log
	Species               Moles    Fraction    Molality    Molality

	Surf              1.000e+10       1.000   1.000e+10      10.000
	SurfA             3.093e-04           0  3.093e-04      -3.510

-----------------------------Solution composition------------------------------

	Elements           Molality       Moles

	A                 3.093e-04   3.093e-04

----------------------------Description of solution----------------------------

                                       pH  =   7.000      Charge balance
                                       pe  =  11.197      Adjusted to redox equilibrium
                        Activity of water  =   1.000
                           Ionic strength  =   1.001e-07
                       Mass of water (kg)  =   1.000e+00
                 Total alkalinity (eq/kg)  =   1.079e-10
                    Total carbon (mol/kg)  =   0 
                       Total CO2 (mol/kg)  =   0 
                      Temperature (deg C)  =  25.000
                  Electrical balance (eq)  =  -1.079e-10
 Percent error, 100*(Cat-|An|)/(Cat+|An|)  =  -0.05
                               Iterations  =   4
                                  Total H  = 1.110124e+02
                                  Total O  = 5.550622e+01

----------------------------Distribution of species----------------------------

                                                   Log       Log         Log 
[...]

Time 120. Cell 55: x=          0.108	y=              0	z=              0
Using solution 55.
Using surface 55.
Using kinetics 55.

Kinetics.

	Time:      120 seconds
	Time step: 0.4 seconds

	Rate name       Delta Moles Total Moles   Reactant        Coefficient

	A_decay           2.225e-10   2.946e-09   A                         1

------------------------------Surface composition------------------------------

Surf          
	  0 Surface charge, eq
Surf          
	  1.000e+10  moles
	                                   Mole                     Log
	Species               Moles    Fraction    Molality    Molality

	Surf              1.000e+10       1.000   1.000e+10      10.000
	SurfA             2.770e-08           0  2.770e-08      -7.557

-----------------------------Solution composition------------------------------

	Elements           Molality       Moles

	A                 2.770e-08   2.770e-08

----------------------------Description of solution----------------------------

                                       pH  =   7.000      Charge balance
                                       pe  =  11.307      Adjusted to redox equilibrium
                        Activity of water  =   1.000
                           Ionic strength  =   1.001e-07
                       Mass of water (kg)  =   1.000e+00
                 Total alkalinity (eq/kg)  =   1.069e-10
                    Total carbon (mol/kg)  =   0 
                       Total CO2 (mol/kg)  =   0 
                      Temperature (deg C)  =  25.000
                  Electrical balance (eq)  =  -1.069e-10
 Percent error, 100*(Cat-|An|)/(Cat+|An|)  =  -0.05
                               Iterations  =   5
                                  Total H  = 1.110124e+02
                                  Total O  = 5.550622e+01

----------------------------Distribution of species----------------------------

                                                   Log       Log         Log 
   Species                 Molality    Activity  Molality  Activity     Gamma

   OH-                    1.001e-07   1.001e-07    -6.999    -7.000         0
   H+                     1.000e-07   1.000e-07    -7.000    -7.000         0
   H2O                    5.551e+01   1.000e+00     1.744         0        0
A                2.770e-08
   A                      2.770e-08   2.770e-08    -7.557    -7.557         0
H(0)             3.444e-40
   H2                     1.722e-40   1.722e-40   -39.764   -39.764         0
O(0)             2.812e-13
   O2                     1.406e-13   1.406e-13   -12.852   -12.852         0

------------------------------Saturation indices-------------------------------

	Phase               SI log IAP  log KT

	H2(g)           -36.61  -39.76   -3.15  H2
	H2O(g)           -1.51       0   1.51  H2O
	O2(g)            -9.89  -12.85   -2.96  O2

Time 120. Cell 56: x=           0.11	y=              0	z=              0
Using solution 56.
Using surface 56.
Using kinetics 56.

Kinetics.

	Time:      120 seconds
	Time step: 0.4 seconds

	Rate name       Delta Moles Total Moles   Reactant        Coefficient

	A_decay           1.264e-10   1.622e-09   A                         1

------------------------------Surface composition------------------------------

Surf          
	  0 Surface charge, eq
Surf          
	  1.000e+10  moles
	                                   Mole                     Log
	Species               Moles    Fraction    Molality    Molality

	Surf              1.000e+10       1.000   1.000e+10      10.000
	SurfA             1.574e-08           0  1.574e-08      -7.803

-----------------------------Solution composition------------------------------

	Elements           Molality       Moles

	A                 1.574e-08   1.574e-08

----------------------------Description of solution----------------------------

                                       pH  =   7.000      Charge balance
                                       pe  =  11.317      Adjusted to redox equilibrium
                        Activity of water  =   1.000
                           Ionic strength  =   1.001e-07
                       Mass of water (kg)  =   1.000e+00
                 Total alkalinity (eq/kg)  =   1.069e-10
                    Total carbon (mol/kg)  =   0 
                       Total CO2 (mol/kg)  =   0 
                      Temperature (deg C)  =  25.000
                  Electrical balance (eq)  =  -1.069e-10
 Percent error, 100*(Cat-|An|)/(Cat+|An|)  =  -0.05
                               Iterations  =   5
                                  Total H  = 1.110124e+02
                                  Total O  = 5.550622e+01

----------------------------Distribution of species----------------------------

                                                   Log       Log         Log 
   Species                 Molality    Activity  Molality  Activity     Gamma

   OH-                    1.001e-07   1.001e-07    -6.999    -7.000         0
   H+                     1.000e-07   1.000e-07    -7.000    -7.000         0
   H2O                    5.551e+01   1.000e+00     1.744         0        0
A                1.574e-08
   A                      1.574e-08   1.574e-08    -7.803    -7.803         0
H(0)             3.286e-40
   H2                     1.643e-40   1.643e-40   -39.784   -39.784         0
O(0)             3.089e-13
   O2                     1.544e-13   1.544e-13   -12.811   -12.811         0

------------------------------Saturation indices-------------------------------

	Phase               SI log IAP  log KT

	H2(g)           -36.63  -39.78   -3.15  H2
	H2O(g)           -1.51       0   1.51  H2O
	O2(g)            -9.85  -12.81   -2.96  O2

Time 120. Cell 57: x=          0.112	y=              0	z=              0
Using solution 57.
Using surface 57.
Using kinetics 57.

Kinetics.

	Time:      120 seconds
	Time step: 0.4 seconds

	Rate name       Delta Moles Total Moles   Reactant        Coefficient

	A_decay           7.083e-11   8.817e-10   A                         1

------------------------------Surface composition------------------------------

Surf          
	  0 Surface charge, eq
Surf          
	  1.000e+10  moles
	                                   Mole                     Log
	Species               Moles    Fraction    Molality    Molality

	Surf              1.000e+10       1.000   1.000e+10      10.000
	SurfA             8.819e-09           0  8.819e-09      -8.055

-----------------------------Solution composition------------------------------

	Elements           Molality       Moles

	A                 8.819e-09   8.819e-09

----------------------------Description of solution----------------------------

                                       pH  =   7.000      Charge balance
                                       pe  =  11.332      Adjusted to redox equilibrium
                        Activity of water  =   1.000
                           Ionic strength  =   1.001e-07
                       Mass of water (kg)  =   1.000e+00
                 Total alkalinity (eq/kg)  =   1.070e-10
                    Total carbon (mol/kg)  =   0 
                       Total CO2 (mol/kg)  =   0 
                      Temperature (deg C)  =  25.000
                  Electrical balance (eq)  =  -1.070e-10
 Percent error, 100*(Cat-|An|)/(Cat+|An|)  =  -0.05
                               Iterations  =   5
                                  Total H  = 1.110124e+02
                                  Total O  = 5.550622e+01

----------------------------Distribution of species----------------------------

                                                   Log       Log         Log 
   Species                 Molality    Activity  Molality  Activity     Gamma

   OH-                    1.001e-07   1.001e-07    -6.999    -7.000         0
   H+                     1.000e-07   1.000e-07    -7.000    -7.000         0
   H2O                    5.551e+01   1.000e+00     1.744         0        0
A                8.819e-09
   A                      8.819e-09   8.819e-09    -8.055    -8.055         0
H(0)             3.065e-40
   H2                     1.533e-40   1.533e-40   -39.815   -39.815         0
O(0)             3.549e-13
   O2                     1.775e-13   1.775e-13   -12.751   -12.751         0

------------------------------Saturation indices-------------------------------

	Phase               SI log IAP  log KT

	H2(g)           -36.66  -39.81   -3.15  H2
	H2O(g)           -1.51       0   1.51  H2O
	O2(g)            -9.79  -12.75   -2.96  O2

Time 120. Cell 58: x=          0.114	y=              0	z=              0
Using solution 58.
Using surface 58.
Using kinetics 58.

Kinetics.

	Time:      120 seconds
	Time step: 0.4 seconds

	Rate name       Delta Moles Total Moles   Reactant        Coefficient

	A_decay           3.914e-11   4.731e-10   A                         1

------------------------------Surface composition------------------------------

Surf          
	  0 Surface charge, eq
Surf          
	  1.000e+10  moles
	                                   Mole                     Log
	Species               Moles    Fraction    Molality    Molality

	Surf              1.000e+10       1.000   1.000e+10      10.000
	SurfA             4.873e-09           0  4.873e-09      -8.312

-----------------------------Solution composition------------------------------

	Elements           Molality       Moles

	A                 4.873e-09   4.873e-09

----------------------------Description of solution----------------------------

                                       pH  =   7.000      Charge balance
                                       pe  =  11.341      Adjusted to redox equilibrium
                        Activity of water  =   1.000
                           Ionic strength  =   1.001e-07
                       Mass of water (kg)  =   1.000e+00
                 Total alkalinity (eq/kg)  =   1.071e-10
                    Total carbon (mol/kg)  =   0 
                       Total CO2 (mol/kg)  =   0 
                      Temperature (deg C)  =  25.000
                  Electrical balance (eq)  =  -1.071e-10
 Percent error, 100*(Cat-|An|)/(Cat+|An|)  =  -0.05
                               Iterations  =   5
                                  Total H  = 1.110124e+02
                                  Total O  = 5.550622e+01

----------------------------Distribution of species----------------------------

                                                   Log       Log         Log 
   Species                 Molality    Activity  Molality  Activity     Gamma

   OH-                    1.001e-07   1.001e-07    -6.999    -7.000         0
   H+                     1.000e-07   1.000e-07    -7.000    -7.000         0
   H2O                    5.551e+01   1.000e+00     1.744         0        0
A                4.873e-09
   A                      4.873e-09   4.873e-09    -8.312    -8.312         0
H(0)             2.946e-40
   H2                     1.473e-40   1.473e-40   -39.832   -39.832         0
O(0)             3.843e-13
   O2                     1.922e-13   1.922e-13   -12.716   -12.716         0

------------------------------Saturation indices-------------------------------

	Phase               SI log IAP  log KT

	H2(g)           -36.68  -39.83   -3.15  H2
	H2O(g)           -1.51       0   1.51  H2O
	O2(g)            -9.76  -12.72   -2.96  O2

Time 120. Cell 59: x=          0.116	y=              0	z=              0
Using solution 59.
Using surface 59.
Using kinetics 59.

Kinetics.

	Time:      120 seconds
	Time step: 0.4 seconds

	Rate name       Delta Moles Total Moles   Reactant        Coefficient

	A_decay           2.133e-11   2.506e-10   A                         1

------------------------------Surface composition------------------------------

Surf          
	  0 Surface charge, eq
Surf          
	  1.000e+10  moles
	                                   Mole                     Log
	Species               Moles    Fraction    Molality    Molality

	Surf              1.000e+10       1.000   1.000e+10      10.000
	SurfA             2.656e-09           0  2.656e-09      -8.576

-----------------------------Solution composition------------------------------

	Elements           Molality       Moles

	A                 2.656e-09   2.656e-09

----------------------------Description of solution----------------------------

                                       pH  =   7.000      Charge balance
                                       pe  =  11.350      Adjusted to redox equilibrium
                        Activity of water  =   1.000
                           Ionic strength  =   1.001e-07
                       Mass of water (kg)  =   1.000e+00
                 Total alkalinity (eq/kg)  =   1.072e-10
                    Total carbon (mol/kg)  =   0 
                       Total CO2 (mol/kg)  =   0 
                      Temperature (deg C)  =  25.000
                  Electrical balance (eq)  =  -1.072e-10
 Percent error, 100*(Cat-|An|)/(Cat+|An|)  =  -0.05
                               Iterations  =   5
                                  Total H  = 1.110124e+02
                                  Total O  = 5.550622e+01

----------------------------Distribution of species----------------------------

                                                   Log       Log         Log 
   Species                 Molality    Activity  Molality  Activity     Gamma

   OH-                    1.001e-07   1.001e-07    -6.999    -7.000         0
   H+                     1.000e-07   1.000e-07    -7.000    -7.000         0
   H2O                    5.551e+01   1.000e+00     1.744         0        0
A                2.656e-09
   A                      2.656e-09   2.656e-09    -8.576    -8.576         0
H(0)             2.821e-40
   H2                     1.411e-40   1.411e-40   -39.851   -39.851         0
O(0)             4.190e-13
   O2                     2.095e-13   2.095e-13   -12.679   -12.679         0

------------------------------Saturation indices-------------------------------

	Phase               SI log IAP  log KT

	H2(g)           -36.70  -39.85   -3.15  H2
	H2O(g)           -1.51       0   1.51  H2O
	O2(g)            -9.72  -12.68   -2.96  O2

Time 120. Cell 60: x=          0.118	y=              0	z=              0
Using solution 60.
Using surface 60.
Using kinetics 60.

Kinetics.

	Time:      120 seconds
	Time step: 0.4 seconds

	Rate name       Delta Moles Total Moles   Reactant        Coefficient

	A_decay           1.147e-11   1.311e-10   A                         1

------------------------------Surface composition------------------------------

Surf          
	  0 Surface charge, eq
Surf          
	  1.000e+10  moles
	                                   Mole                     Log
	Species               Moles    Fraction    Molality    Molality

	Surf              1.000e+10       1.000   1.000e+10      10.000
	SurfA             1.429e-09           0  1.429e-09      -8.845

-----------------------------Solution composition------------------------------

	Elements           Molality       Moles

	A                 1.429e-09   1.429e-09

----------------------------Description of solution----------------------------

                                       pH  =   7.000      Charge balance
                                       pe  =  11.359      Adjusted to redox equilibrium
                        Activity of water  =   1.000
                           Ionic strength  =   1.001e-07
                       Mass of water (kg)  =   1.000e+00
                 Total alkalinity (eq/kg)  =   1.073e-10
                    Total carbon (mol/kg)  =   0 
                       Total CO2 (mol/kg)  =   0 
                      Temperature (deg C)  =  25.000
                  Electrical balance (eq)  =  -1.073e-10
 Percent error, 100*(Cat-|An|)/(Cat+|An|)  =  -0.05
                               Iterations  =   5
                                  Total H  = 1.110124e+02
                                  Total O  = 5.550622e+01

----------------------------Distribution of species----------------------------

                                                   Log       Log         Log 
   Species                 Molality    Activity  Molality  Activity     Gamma

   OH-                    1.001e-07   1.001e-07    -6.999    -7.000         0
   H+                     1.000e-07   1.000e-07    -7.000    -7.000         0
   H2O                    5.551e+01   1.000e+00     1.744         0        0
A                1.429e-09
   A                      1.429e-09   1.429e-09    -8.845    -8.845         0
H(0)             2.714e-40
   H2                     1.357e-40   1.357e-40   -39.867   -39.867         0
O(0)             4.526e-13
   O2                     2.263e-13   2.263e-13   -12.645   -12.645         0

------------------------------Saturation indices-------------------------------

	Phase               SI log IAP  log KT

	H2(g)           -36.72  -39.87   -3.15  H2
	H2O(g)           -1.51       0   1.51  H2O
	O2(g)            -9.69  -12.65   -2.96  O2

Time 120. Cell 61: x=           0.12	y=              0	z=              0
Using solution 61.
Using surface 61.
Using kinetics 61.

Kinetics.

	Time:      120 seconds
	Time step: 0.4 seconds

	Rate name       Delta Moles Total Moles   Reactant        Coefficient

	A_decay           7.982e-12   8.959e-11   A                         1

------------------------------Surface composition------------------------------

Surf          
	  0 Surface charge, eq
Surf          
	  1.000e+10  moles
	                                   Mole                     Log
	Species               Moles    Fraction    Molality    Molality

	Surf              1.000e+10       1.000   1.000e+10      10.000
	SurfA             9.938e-10           0  9.938e-10      -9.003

-----------------------------Solution composition------------------------------

	Elements           Molality       Moles

	A                 9.938e-10   9.938e-10

----------------------------Description of solution----------------------------

                                       pH  =   7.000      Charge balance
                                       pe  =  11.365      Adjusted to redox equilibrium
                        Activity of water  =   1.000
                           Ionic strength  =   1.001e-07
                       Mass of water (kg)  =   1.000e+00
                 Total alkalinity (eq/kg)  =   1.073e-10
                    Total carbon (mol/kg)  =   0 
                       Total CO2 (mol/kg)  =   0 
                      Temperature (deg C)  =  25.000
                  Electrical balance (eq)  =  -1.073e-10
 Percent error, 100*(Cat-|An|)/(Cat+|An|)  =  -0.05
                               Iterations  =   5
                                  Total H  = 1.110124e+02
                                  Total O  = 5.550622e+01

----------------------------Distribution of species----------------------------

                                                   Log       Log         Log 
   Species                 Molality    Activity  Molality  Activity     Gamma

   OH-                    1.001e-07   1.001e-07    -6.999    -7.000         0
   H+                     1.000e-07   1.000e-07    -7.000    -7.000         0
   H2O                    5.551e+01   1.000e+00     1.744         0        0
A                9.938e-10
   A                      9.938e-10   9.938e-10    -9.003    -9.003         0
H(0)             2.636e-40
   H2                     1.318e-40   1.318e-40   -39.880   -39.880         0
O(0)             4.799e-13
   O2                     2.400e-13   2.400e-13   -12.620   -12.620         0

------------------------------Saturation indices-------------------------------

	Phase               SI log IAP  log KT

	H2(g)           -36.73  -39.88   -3.15  H2
	H2O(g)           -1.51       0   1.51  H2O
	O2(g)            -9.66  -12.62   -2.96  O2

