Output file:    ex1.chem.txt
Chemistry file: ex1.chem.dat
Database file:  phast.dat

------------------
Reading data base.
------------------

	SOLUTION_MASTER_SPECIES
	SOLUTION_SPECIES
	PHASES
	EXCHANGE_MASTER_SPECIES
	EXCHANGE_SPECIES
	SURFACE_MASTER_SPECIES
	SURFACE_SPECIES
	RATES
	END
------------------------------------
Reading input data for simulation 1.
------------------------------------

	TITLE
	.       Example 1.--Pulse of solute undergoing sorption and decay
	.       Analytical solution from Quantitative Hydrogeology, de Marsily
	SOLUTION_MASTER_SPECIES
	        A       A       0       A       1
	SOLUTION_SPECIES
	        A = A
	        log_k   0
	SURFACE_MASTER_SPECIES
	        Surf    Surf
	SURFACE_SPECIES
	        Surf = Surf
	                log_k 0
	        Surf + A = SurfA 
	                log_k   -10
	SOLUTION 1
	END
-----
TITLE
-----

.       Example 1.--Pulse of solute undergoing sorption and decay
.       Analytical solution from Quantitative Hydrogeology, de Marsily

-------------------------------------------
Beginning of initial solution calculations.
-------------------------------------------

Initial solution 1.	

-----------------------------Solution composition------------------------------

	Elements           Molality       Moles

	Pure water     

----------------------------Description of solution----------------------------

                                       pH  =   7.000    
                                       pe  =   4.000    
                        Activity of water  =   1.000
                           Ionic strength  =   1.001e-07
                       Mass of water (kg)  =   1.000e+00
                 Total alkalinity (eq/kg)  =   1.082e-10
                    Total carbon (mol/kg)  =   0.000e+00
                       Total CO2 (mol/kg)  =   0.000e+00
                      Temperature (deg C)  =  25.000
                  Electrical balance (eq)  =  -1.082e-10
 Percent error, 100*(Cat-|An|)/(Cat+|An|)  =  -0.05
                               Iterations  =   0
                                  Total H  = 1.110124e+02
                                  Total O  = 5.550622e+01

----------------------------Distribution of species----------------------------

                                                   Log       Log         Log 
   Species                 Molality    Activity  Molality  Activity     Gamma

   OH-                    1.002e-07   1.001e-07    -6.999    -6.999         0
   H+                     1.001e-07   1.000e-07    -7.000    -7.000         0
   H2O                    5.551e+01   1.000e+00     1.744         0         0
H(0)             1.416e-25
   H2                     7.079e-26   7.079e-26   -25.150   -25.150         0
O(0)             0.000e+00
   O2                     0.000e+00   0.000e+00   -42.080   -42.080         0

------------------------------Saturation indices-------------------------------

	Phase               SI log IAP  log KT

	H2(g)           -22.00  -25.15   -3.15  H2
	H2O(g)           -1.51       0    1.51  H2O
	O2(g)           -39.12  -42.08   -2.96  O2

------------------
End of simulation.
------------------

------------------------------------
Reading input data for simulation 2.
------------------------------------

	SOLUTION 2
	        A        1.0 mmol/kgw
	END
-------------------------------------------
Beginning of initial solution calculations.
-------------------------------------------

Initial solution 2.	

-----------------------------Solution composition------------------------------

	Elements           Molality       Moles

	A                 1.000e-03   1.000e-03

----------------------------Description of solution----------------------------

                                       pH  =   7.000    
                                       pe  =   4.000    
                        Activity of water  =   1.000
                           Ionic strength  =   1.001e-07
                       Mass of water (kg)  =   1.000e+00
                 Total alkalinity (eq/kg)  =   1.065e-10
                    Total carbon (mol/kg)  =   0.000e+00
                       Total CO2 (mol/kg)  =   0.000e+00
                      Temperature (deg C)  =  25.000
                  Electrical balance (eq)  =  -1.065e-10
 Percent error, 100*(Cat-|An|)/(Cat+|An|)  =  -0.05
                               Iterations  =   2
                                  Total H  = 1.110124e+02
                                  Total O  = 5.550622e+01

----------------------------Distribution of species----------------------------

                                                   Log       Log         Log 
   Species                 Molality    Activity  Molality  Activity     Gamma

   OH-                    1.001e-07   1.001e-07    -6.999    -7.000         0
   H+                     1.000e-07   1.000e-07    -7.000    -7.000         0
   H2O                    5.551e+01   1.000e+00     1.744         0         0
A                1.000e-03
   A                      1.000e-03   1.000e-03    -3.000    -3.000         0
H(0)             1.416e-25
   H2                     7.079e-26   7.079e-26   -25.150   -25.150         0
O(0)             0.000e+00
   O2                     0.000e+00   0.000e+00   -42.080   -42.080         0

------------------------------Saturation indices-------------------------------

	Phase               SI log IAP  log KT

	H2(g)           -22.00  -25.15   -3.15  H2
	H2O(g)           -1.51       0    1.51  H2O
	O2(g)           -39.12  -42.08   -2.96  O2

------------------
End of simulation.
------------------

------------------------------------
Reading input data for simulation 3.
------------------------------------

	SURFACE 1
	        no_edl
	        Surf    1e10    
	END
------------------
End of simulation.
------------------

------------------------------------
Reading input data for simulation 4.
------------------------------------

	KINETICS 1
	        A_decay
	        formula A 1.0
	        m 0
	RATES
	        A_decay
	        start
	10 rate = -(TOT("A") + MOL("SurfA")) * .01
	20 moles = rate * TIME
	30 SAVE moles
	        end
	END
------------------
End of simulation.
------------------

------------------------------------
Reading input data for simulation 5.
------------------------------------

	SELECTED_OUTPUT
	        file ex1.dummy.sel
	        reset false
	USER_PUNCH
	        headings A SurfA SurfA/A
	10 PUNCH TOT("A")*1000
	20 PUNCH MOL("SurfA")*1000
	30 IF TOT("A") > 0 THEN PUNCH MOL("SurfA")/TOT("A") ELSE PUNCH -1
	END
------------------
End of simulation.
------------------

------------------------------------
Reading input data for simulation 6.
------------------------------------

List of Components:
	1	H
	2	O
	3	A
	4	Charge
List of master species:
	1	A
Time 120. Cell 1: x=              0	y=              0	z=              0
Using solution 1.
Using surface 1.
Using kinetics 1.

Kinetics.

	Time:      120 seconds
	Time step: 0.4 seconds

	Rate name       Delta Moles Total Moles   Reactant        Coefficient

	A_decay           5.420e-15   1.175e-03   A                         1

------------------------------Surface composition------------------------------

Surf          
	  0.000e+00  Surface charge, eq
Surf          
	  1.000e+10  moles
	                                   Mole                     Log
	Species               Moles    Fraction    Molality    Molality

	Surf              1.000e+10       1.000   1.000e+10      10.000
	SurfA             6.748e-13           0   6.748e-13     -12.171

-----------------------------Solution composition------------------------------

	Elements           Molality       Moles

	A                 6.748e-13   6.748e-13

----------------------------Description of solution----------------------------

                                       pH  =   7.000      Charge balance
                                       pe  =  -1.840      Adjusted to redox equilibrium
                        Activity of water  =   1.000
                           Ionic strength  =   1.001e-07
                       Mass of water (kg)  =   1.000e+00
                 Total alkalinity (eq/kg)  =   1.082e-10
                    Total carbon (mol/kg)  =   0.000e+00
                       Total CO2 (mol/kg)  =   0.000e+00
                      Temperature (deg C)  =  25.000
                  Electrical balance (eq)  =  -1.082e-10
 Percent error, 100*(Cat-|An|)/(Cat+|An|)  =  -0.05
                               Iterations  =   5
                                  Total H  = 1.110124e+02
                                  Total O  = 5.550622e+01

----------------------------Distribution of species----------------------------

                                                   Log       Log         Log 
   Species                 Molality    Activity  Molality  Activity     Gamma

   OH-                    1.001e-07   1.001e-07    -6.999    -7.000         0
   H+                     1.000e-07   1.000e-07    -7.000    -7.000         0
   H2O                    5.551e+01   1.000e+00     1.744         0         0
A                6.748e-13
   A                      6.748e-13   6.748e-13   -12.171   -12.171         0
H(0)             6.792e-14
   H2                     3.396e-14   3.396e-14   -13.469   -13.469         0
O(0)             0.000e+00
   O2                     0.000e+00   0.000e+00   -65.442   -65.442         0

------------------------------Saturation indices-------------------------------

	Phase               SI log IAP  log KT

	H2(g)           -10.32  -13.47   -3.15  H2
	H2O(g)           -1.51       0    1.51  H2O
	O2(g)           -62.48  -65.44   -2.96  O2

Time 120. Cell 2: x=          0.002	y=              0	z=              0
Using solution 2.
Using surface 2.
Using kinetics 2.

Kinetics.

	Time:      120 seconds
	Time step: 0.4 seconds

	Rate name       Delta Moles Total Moles   Reactant        Coefficient

	A_decay           5.453e-12   1.130e-03   A                         1

------------------------------Surface composition------------------------------

Surf          
	  0.000e+00  Surface charge, eq
Surf          
	  1.000e+10  moles
	                                   Mole                     Log
	Species               Moles    Fraction    Molality    Molality

	Surf              1.000e+10       1.000   1.000e+10      10.000
	SurfA             6.790e-10           0   6.790e-10      -9.168

-----------------------------Solution composition------------------------------

	Elements           Molality       Moles

	A                 6.790e-10   6.790e-10

----------------------------Description of solution----------------------------

                                       pH  =   7.000      Charge balance
                                       pe  =  -2.017      Adjusted to redox equilibrium
                        Activity of water  =   1.000
                           Ionic strength  =   1.001e-07
                       Mass of water (kg)  =   1.000e+00
                 Total alkalinity (eq/kg)  =   1.082e-10
                    Total carbon (mol/kg)  =   0.000e+00
                       Total CO2 (mol/kg)  =   0.000e+00
                      Temperature (deg C)  =  25.000
                  Electrical balance (eq)  =  -1.082e-10
 Percent error, 100*(Cat-|An|)/(Cat+|An|)  =  -0.05
                               Iterations  =   5
                                  Total H  = 1.110124e+02
                                  Total O  = 5.550622e+01

----------------------------Distribution of species----------------------------

                                                   Log       Log         Log 
   Species                 Molality    Activity  Molality  Activity     Gamma

   OH-                    1.001e-07   1.001e-07    -6.999    -7.000         0
   H+                     1.000e-07   1.000e-07    -7.000    -7.000         0
   H2O                    5.551e+01   1.000e+00     1.744         0         0
A                6.790e-10
   A                      6.790e-10   6.790e-10    -9.168    -9.168         0
H(0)             1.532e-13
   H2                     7.658e-14   7.658e-14   -13.116   -13.116         0
O(0)             0.000e+00
   O2                     0.000e+00   0.000e+00   -66.148   -66.148         0

------------------------------Saturation indices-------------------------------

	Phase               SI log IAP  log KT

	H2(g)            -9.97  -13.12   -3.15  H2
	H2O(g)           -1.51       0    1.51  H2O
	O2(g)           -63.19  -66.15   -2.96  O2

Time 120. Cell 3: x=          0.004	y=              0	z=              0
Using solution 3.
Using surface 3.
Using kinetics 3.

Kinetics.

	Time:      120 seconds
	Time step: 0.4 seconds

	Rate name       Delta Moles Total Moles   Reactant        Coefficient

	A_decay           7.265e-11   1.087e-03   A                         1

------------------------------Surface composition------------------------------

Surf          
	  0.000e+00  Surface charge, eq
Surf          
	  1.000e+10  moles
	                                   Mole                     Log
	Species               Moles    Fraction    Molality    Molality

	Surf              1.000e+10       1.000   1.000e+10      10.000
	SurfA             9.045e-09           0   9.045e-09      -8.044

-----------------------------Solution composition------------------------------

	Elements           Molality       Moles

	A                 9.045e-09   9.045e-09

----------------------------Description of solution----------------------------

                                       pH  =   7.000      Charge balance
                                       pe  =  -2.113      Adjusted to redox equilibrium
                        Activity of water  =   1.000
                           Ionic strength  =   1.001e-07
                       Mass of water (kg)  =   1.000e+00
                 Total alkalinity (eq/kg)  =   1.082e-10
                    Total carbon (mol/kg)  =   0.000e+00
                       Total CO2 (mol/kg)  =   0.000e+00
                      Temperature (deg C)  =  25.000
                  Electrical balance (eq)  =  -1.082e-10
 Percent error, 100*(Cat-|An|)/(Cat+|An|)  =  -0.05
                               Iterations  =   5
                                  Total H  = 1.110124e+02
                                  Total O  = 5.550622e+01

----------------------------Distribution of species----------------------------

                                                   Log       Log         Log 
   Species                 Molality    Activity  Molality  Activity     Gamma

   OH-                    1.001e-07   1.001e-07    -6.999    -7.000         0
   H+                     1.000e-07   1.000e-07    -7.000    -7.000         0
   H2O                    5.551e+01   1.000e+00     1.744         0         0
A                9.045e-09
   A                      9.045e-09   9.045e-09    -8.044    -8.044         0
H(0)             2.384e-13
   H2                     1.192e-13   1.192e-13   -12.924   -12.924         0
O(0)             0.000e+00
   O2                     0.000e+00   0.000e+00   -66.533   -66.533         0

------------------------------Saturation indices-------------------------------

	Phase               SI log IAP  log KT

	H2(g)            -9.77  -12.92   -3.15  H2
	H2O(g)           -1.51       0    1.51  H2O
	O2(g)           -63.57  -66.53   -2.96  O2

Time 120. Cell 4: x=          0.006	y=              0	z=              0
Using solution 4.
Using surface 4.
Using kinetics 4.

Kinetics.

	Time:      120 seconds
	Time step: 0.4 seconds

	Rate name       Delta Moles Total Moles   Reactant        Coefficient

	A_decay           4.979e-10   1.045e-03   A                         1

------------------------------Surface composition------------------------------

Surf          
	  0.000e+00  Surface charge, eq
Surf          
	  1.000e+10  moles
	                                   Mole                     Log
	Species               Moles    Fraction    Molality    Molality

	Surf              1.000e+10       1.000   1.000e+10      10.000
	SurfA             6.199e-08           0   6.199e-08      -7.208

-----------------------------Solution composition------------------------------

	Elements           Molality       Moles

	A                 6.199e-08   6.199e-08

----------------------------Description of solution----------------------------

                                       pH  =   7.000      Charge balance
                                       pe  =  -2.189      Adjusted to redox equilibrium
                        Activity of water  =   1.000
                           Ionic strength  =   1.001e-07
                       Mass of water (kg)  =   1.000e+00
                 Total alkalinity (eq/kg)  =   1.082e-10
                    Total carbon (mol/kg)  =   0.000e+00
                       Total CO2 (mol/kg)  =   0.000e+00
                      Temperature (deg C)  =  25.000
                  Electrical balance (eq)  =  -1.082e-10
 Percent error, 100*(Cat-|An|)/(Cat+|An|)  =  -0.05
                               Iterations  =   5
                                  Total H  = 1.110124e+02
                                  Total O  = 5.550622e+01

----------------------------Distribution of species----------------------------

                                                   Log       Log         Log 
   Species                 Molality    Activity  Molality  Activity     Gamma

   OH-                    1.001e-07   1.001e-07    -6.999    -7.000         0
   H+                     1.000e-07   1.000e-07    -7.000    -7.000         0
   H2O                    5.551e+01   1.000e+00     1.744         0         0
A                6.199e-08
   A                      6.199e-08   6.199e-08    -7.208    -7.208         0
H(0)             3.379e-13
   H2                     1.689e-13   1.689e-13   -12.772   -12.772         0
O(0)             0.000e+00
   O2                     0.000e+00   0.000e+00   -66.835   -66.835         0

------------------------------Saturation indices-------------------------------

	Phase               SI log IAP  log KT

	H2(g)            -9.62  -12.77   -3.15  H2
	H2O(g)           -1.51       0    1.51  H2O
	O2(g)           -63.88  -66.84   -2.96  O2

Time 120. Cell 5: x=          0.008	y=              0	z=              0
Using solution 5.
Using surface 5.
Using kinetics 5.

Kinetics.

	Time:      120 seconds
	Time step: 0.4 seconds

	Rate name       Delta Moles Total Moles   Reactant        Coefficient

	A_decay           2.321e-09   1.005e-03   A                         1

------------------------------Surface composition------------------------------

Surf          
	  0.000e+00  Surface charge, eq
Surf          
	  1.000e+10  moles
	                                   Mole                     Log
	Species               Moles    Fraction    Molality    Molality

	Surf              1.000e+10       1.000   1.000e+10      10.000
	SurfA             2.890e-07           0   2.890e-07      -6.539

-----------------------------Solution composition------------------------------

	Elements           Molality       Moles

	A                 2.890e-07   2.890e-07

----------------------------Description of solution----------------------------

                                       pH  =   7.000      Charge balance
                                       pe  =  -2.238      Adjusted to redox equilibrium
                        Activity of water  =   1.000
                           Ionic strength  =   1.001e-07
                       Mass of water (kg)  =   1.000e+00
                 Total alkalinity (eq/kg)  =   1.082e-10
                    Total carbon (mol/kg)  =   0.000e+00
                       Total CO2 (mol/kg)  =   0.000e+00
                      Temperature (deg C)  =  25.000
                  Electrical balance (eq)  =  -1.082e-10
 Percent error, 100*(Cat-|An|)/(Cat+|An|)  =  -0.05
                               Iterations  =   5
                                  Total H  = 1.110124e+02
                                  Total O  = 5.550622e+01

----------------------------Distribution of species----------------------------

                                                   Log       Log         Log 
   Species                 Molality    Activity  Molality  Activity     Gamma

   OH-                    1.001e-07   1.001e-07    -6.999    -7.000         0
   H+                     1.000e-07   1.000e-07    -7.000    -7.000         0
   H2O                    5.551e+01   1.000e+00     1.744         0         0
A                2.890e-07
   A                      2.890e-07   2.890e-07    -6.539    -6.539         0
H(0)             4.232e-13
   H2                     2.116e-13   2.116e-13   -12.675   -12.675         0
O(0)             0.000e+00
   O2                     0.000e+00   0.000e+00   -67.031   -67.031         0

------------------------------Saturation indices-------------------------------

	Phase               SI log IAP  log KT

	H2(g)            -9.52  -12.67   -3.15  H2
	H2O(g)           -1.51       0    1.51  H2O
	O2(g)           -64.07  -67.03   -2.96  O2

Time 120. Cell 6: x=           0.01	y=              0	z=              0
Using solution 6.
Using surface 6.
Using kinetics 6.

Kinetics.

	Time:      120 seconds
	Time step: 0.4 seconds

	Rate name       Delta Moles Total Moles   Reactant        Coefficient

	A_decay           8.258e-09   9.660e-04   A                         1

------------------------------Surface composition------------------------------

Surf          
	  0.000e+00  Surface charge, eq
Surf          
	  1.000e+10  moles
	                                   Mole                     Log
	Species               Moles    Fraction    Molality    Molality

	Surf              1.000e+10       1.000   1.000e+10      10.000
	SurfA             1.028e-06           0   1.028e-06      -5.988

-----------------------------Solution composition------------------------------

	Elements           Molality       Moles

	A                 1.028e-06   1.028e-06

----------------------------Description of solution----------------------------

                                       pH  =   7.000      Charge balance
                                       pe  =  -2.278      Adjusted to redox equilibrium
                        Activity of water  =   1.000
                           Ionic strength  =   1.001e-07
                       Mass of water (kg)  =   1.000e+00
                 Total alkalinity (eq/kg)  =   1.082e-10
                    Total carbon (mol/kg)  =   0.000e+00
                       Total CO2 (mol/kg)  =   0.000e+00
                      Temperature (deg C)  =  25.000
                  Electrical balance (eq)  =  -1.082e-10
 Percent error, 100*(Cat-|An|)/(Cat+|An|)  =  -0.05
                               Iterations  =   5
                                  Total H  = 1.110124e+02
                                  Total O  = 5.550622e+01

----------------------------Distribution of species----------------------------

                                                   Log       Log         Log 
   Species                 Molality    Activity  Molality  Activity     Gamma

   OH-                    1.001e-07   1.001e-07    -6.999    -7.000         0
   H+                     1.000e-07   1.000e-07    -7.000    -7.000         0
   H2O                    5.551e+01   1.000e+00     1.744         0         0
A                1.028e-06
   A                      1.028e-06   1.028e-06    -5.988    -5.988         0
H(0)             5.084e-13
   H2                     2.542e-13   2.542e-13   -12.595   -12.595         0
O(0)             0.000e+00
   O2                     0.000e+00   0.000e+00   -67.190   -67.190         0

------------------------------Saturation indices-------------------------------

	Phase               SI log IAP  log KT

	H2(g)            -9.44  -12.59   -3.15  H2
	H2O(g)           -1.51       0    1.51  H2O
	O2(g)           -64.23  -67.19   -2.96  O2

Time 120. Cell 7: x=          0.012	y=              0	z=              0
Using solution 7.
Using surface 7.
Using kinetics 7.

Kinetics.

	Time:      120 seconds
	Time step: 0.4 seconds

	Rate name       Delta Moles Total Moles   Reactant        Coefficient

	A_decay           2.390e-08   9.287e-04   A                         1

------------------------------Surface composition------------------------------

Surf          
	  0.000e+00  Surface charge, eq
Surf          
	  1.000e+10  moles
	                                   Mole                     Log
	Species               Moles    Fraction    Molality    Molality

	Surf              1.000e+10       1.000   1.000e+10      10.000
	SurfA             2.975e-06           0   2.975e-06      -5.526

-----------------------------Solution composition------------------------------

	Elements           Molality       Moles

	A                 2.975e-06   2.975e-06

----------------------------Description of solution----------------------------

                                       pH  =   7.000      Charge balance
                                       pe  =  -2.170      Adjusted to redox equilibrium
                        Activity of water  =   1.000
                           Ionic strength  =   1.001e-07
                       Mass of water (kg)  =   1.000e+00
                 Total alkalinity (eq/kg)  =   1.082e-10
                    Total carbon (mol/kg)  =   0.000e+00
                       Total CO2 (mol/kg)  =   0.000e+00
                      Temperature (deg C)  =  25.000
                  Electrical balance (eq)  =  -1.082e-10
 Percent error, 100*(Cat-|An|)/(Cat+|An|)  =  -0.05
                               Iterations  =   5
                                  Total H  = 1.110124e+02
                                  Total O  = 5.550622e+01

----------------------------Distribution of species----------------------------

                                                   Log       Log         Log 
   Species                 Molality    Activity  Molality  Activity     Gamma

   OH-                    1.001e-07   1.001e-07    -6.999    -7.000         0
   H+                     1.000e-07   1.000e-07    -7.000    -7.000         0
   H2O                    5.551e+01   1.000e+00     1.744         0         0
A                2.975e-06
   A                      2.975e-06   2.975e-06    -5.526    -5.526         0
H(0)             3.095e-13
   H2                     1.547e-13   1.547e-13   -12.810   -12.810         0
O(0)             0.000e+00
   O2                     0.000e+00   0.000e+00   -66.759   -66.759         0

------------------------------Saturation indices-------------------------------

	Phase               SI log IAP  log KT

	H2(g)            -9.66  -12.81   -3.15  H2
	H2O(g)           -1.51       0    1.51  H2O
	O2(g)           -63.80  -66.76   -2.96  O2

Time 120. Cell 8: x=          0.014	y=              0	z=              0
Using solution 8.
Using surface 8.
Using kinetics 8.

Kinetics.

	Time:      120 seconds
	Time step: 0.4 seconds

	Rate name       Delta Moles Total Moles   Reactant        Coefficient

	A_decay           5.857e-08   8.925e-04   A                         1

------------------------------Surface composition------------------------------

Surf          
	  0.000e+00  Surface charge, eq
Surf          
	  1.000e+10  moles
	                                   Mole                     Log
	Species               Moles    Fraction    Molality    Molality

	Surf              1.000e+10       1.000   1.000e+10      10.000
	SurfA             7.292e-06           0   7.292e-06      -5.137

-----------------------------Solution composition------------------------------

	Elements           Molality       Moles

	A                 7.292e-06   7.292e-06

----------------------------Description of solution----------------------------

                                       pH  =   7.000      Charge balance
                                       pe  =  -2.160      Adjusted to redox equilibrium
                        Activity of water  =   1.000
                           Ionic strength  =   1.001e-07
                       Mass of water (kg)  =   1.000e+00
                 Total alkalinity (eq/kg)  =   1.082e-10
                    Total carbon (mol/kg)  =   0.000e+00
                       Total CO2 (mol/kg)  =   0.000e+00
                      Temperature (deg C)  =  25.000
                  Electrical balance (eq)  =  -1.082e-10
 Percent error, 100*(Cat-|An|)/(Cat+|An|)  =  -0.05
                               Iterations  =   5
                                  Total H  = 1.110124e+02
                                  Total O  = 5.550622e+01

----------------------------Distribution of species----------------------------

                                                   Log       Log         Log 
   Species                 Molality    Activity  Molality  Activity     Gamma

   OH-                    1.001e-07   1.001e-07    -6.999    -7.000         0
   H+                     1.000e-07   1.000e-07    -7.000    -7.000         0
   H2O                    5.551e+01   1.000e+00     1.744         0         0
A                7.292e-06
   A                      7.292e-06   7.292e-06    -5.137    -5.137         0
H(0)             2.953e-13
   H2                     1.476e-13   1.476e-13   -12.831   -12.831         0
O(0)             0.000e+00
   O2                     0.000e+00   0.000e+00   -66.718   -66.718         0

------------------------------Saturation indices-------------------------------

	Phase               SI log IAP  log KT

	H2(g)            -9.68  -12.83   -3.15  H2
	H2O(g)           -1.51       0    1.51  H2O
	O2(g)           -63.76  -66.72   -2.96  O2

Time 120. Cell 9: x=          0.016	y=              0	z=              0
Using solution 9.
Using surface 9.
Using kinetics 9.

Kinetics.

	Time:      120 seconds
	Time step: 0.4 seconds

	Rate name       Delta Moles Total Moles   Reactant        Coefficient

	A_decay           1.251e-07   8.570e-04   A                         1

------------------------------Surface composition------------------------------

Surf          
	  0.000e+00  Surface charge, eq
Surf          
	  1.000e+10  moles
	                                   Mole                     Log
	Species               Moles    Fraction    Molality    Molality

	Surf              1.000e+10       1.000   1.000e+10      10.000
	SurfA             1.557e-05           0   1.557e-05      -4.808

-----------------------------Solution composition------------------------------

	Elements           Molality       Moles

	A                 1.557e-05   1.557e-05

----------------------------Description of solution----------------------------

                                       pH  =   7.000      Charge balance
                                       pe  =  -2.149      Adjusted to redox equilibrium
                        Activity of water  =   1.000
                           Ionic strength  =   1.001e-07
                       Mass of water (kg)  =   1.000e+00
                 Total alkalinity (eq/kg)  =   1.082e-10
                    Total carbon (mol/kg)  =   0.000e+00
                       Total CO2 (mol/kg)  =   0.000e+00
                      Temperature (deg C)  =  25.000
                  Electrical balance (eq)  =  -1.082e-10
 Percent error, 100*(Cat-|An|)/(Cat+|An|)  =  -0.05
                               Iterations  =   5
                                  Total H  = 1.110124e+02
                                  Total O  = 5.550622e+01

----------------------------Distribution of species----------------------------

                                                   Log       Log         Log 
   Species                 Molality    Activity  Molality  Activity     Gamma

   OH-                    1.001e-07   1.001e-07    -6.999    -7.000         0
   H+                     1.000e-07   1.000e-07    -7.000    -7.000         0
   H2O                    5.551e+01   1.000e+00     1.744         0         0
A                1.557e-05
   A                      1.557e-05   1.557e-05    -4.808    -4.808         0
H(0)             2.810e-13
   H2                     1.405e-13   1.405e-13   -12.852   -12.852         0
O(0)             0.000e+00
   O2                     0.000e+00   0.000e+00   -66.676   -66.676         0

------------------------------Saturation indices-------------------------------

	Phase               SI log IAP  log KT

	H2(g)            -9.70  -12.85   -3.15  H2
	H2O(g)           -1.51       0    1.51  H2O
	O2(g)           -63.72  -66.68   -2.96  O2

Time 120. Cell 10: x=          0.018	y=              0	z=              0
Using solution 10.
Using surface 10.
Using kinetics 10.

Kinetics.

	Time:      120 seconds
	Time step: 0.4 seconds

	Rate name       Delta Moles Total Moles   Reactant        Coefficient

	A_decay           2.375e-07   8.218e-04   A                         1

------------------------------Surface composition------------------------------

Surf          
	  0.000e+00  Surface charge, eq
Surf          
	  1.000e+10  moles
	                                   Mole                     Log
	Species               Moles    Fraction    Molality    Molality

	Surf              1.000e+10       1.000   1.000e+10      10.000
	SurfA             2.957e-05           0   2.957e-05      -4.529

-----------------------------Solution composition------------------------------

	Elements           Molality       Moles

	A                 2.957e-05   2.957e-05

----------------------------Description of solution----------------------------

                                       pH  =   7.000      Charge balance
                                       pe  =  -2.086      Adjusted to redox equilibrium
                        Activity of water  =   1.000
                           Ionic strength  =   1.001e-07
                       Mass of water (kg)  =   1.000e+00
                 Total alkalinity (eq/kg)  =   1.082e-10
                    Total carbon (mol/kg)  =   0.000e+00
                       Total CO2 (mol/kg)  =   0.000e+00
                      Temperature (deg C)  =  25.000
                  Electrical balance (eq)  =  -1.082e-10
 Percent error, 100*(Cat-|An|)/(Cat+|An|)  =  -0.05
                               Iterations  =   5
                                  Total H  = 1.110124e+02
                                  Total O  = 5.550622e+01

----------------------------Distribution of species----------------------------

                                                   Log       Log         Log 
   Species                 Molality    Activity  Molality  Activity     Gamma

   OH-                    1.001e-07   1.001e-07    -6.999    -7.000         0
   H+                     1.000e-07   1.000e-07    -7.000    -7.000         0
   H2O                    5.551e+01   1.000e+00     1.744         0         0
A                2.957e-05
   A                      2.957e-05   2.957e-05    -4.529    -4.529         0
H(0)             2.100e-13
   H2                     1.050e-13   1.050e-13   -12.979   -12.979         0
O(0)             0.000e+00
   O2                     0.000e+00   0.000e+00   -66.422   -66.422         0

------------------------------Saturation indices-------------------------------

	Phase               SI log IAP  log KT

	H2(g)            -9.83  -12.98   -3.15  H2
	H2O(g)           -1.51       0    1.51  H2O
	O2(g)           -63.46  -66.42   -2.96  O2

Time 120. Cell 11: x=           0.02	y=              0	z=              0
Using solution 11.
Using surface 11.
Using kinetics 11.

Kinetics.

	Time:      120 seconds
	Time step: 0.4 seconds

	Rate name       Delta Moles Total Moles   Reactant        Coefficient

	A_decay           4.078e-07   7.863e-04   A                         1

------------------------------Surface composition------------------------------

Surf          
	  0.000e+00  Surface charge, eq
Surf          
	  1.000e+10  moles
	                                   Mole                     Log
	Species               Moles    Fraction    Molality    Molality

	Surf              1.000e+10       1.000   1.000e+10      10.000
	SurfA             5.077e-05           0   5.077e-05      -4.294

-----------------------------Solution composition------------------------------

	Elements           Molality       Moles

	A                 5.077e-05   5.077e-05

----------------------------Description of solution----------------------------

                                       pH  =   7.000      Charge balance
                                       pe  =  -1.946      Adjusted to redox equilibrium
                        Activity of water  =   1.000
                           Ionic strength  =   1.001e-07
                       Mass of water (kg)  =   1.000e+00
                 Total alkalinity (eq/kg)  =   1.082e-10
                    Total carbon (mol/kg)  =   0.000e+00
                       Total CO2 (mol/kg)  =   0.000e+00
                      Temperature (deg C)  =  25.000
                  Electrical balance (eq)  =  -1.082e-10
 Percent error, 100*(Cat-|An|)/(Cat+|An|)  =  -0.05
                               Iterations  =   5
                                  Total H  = 1.110124e+02
                                  Total O  = 5.550622e+01

----------------------------Distribution of species----------------------------

                                                   Log       Log         Log 
   Species                 Molality    Activity  Molality  Activity     Gamma

   OH-                    1.001e-07   1.001e-07    -6.999    -7.000         0
   H+                     1.000e-07   1.000e-07    -7.000    -7.000         0
   H2O                    5.551e+01   1.000e+00     1.744         0         0
A                5.077e-05
   A                      5.077e-05   5.077e-05    -4.294    -4.294         0
H(0)             1.105e-13
   H2                     5.525e-14   5.525e-14   -13.258   -13.258         0
O(0)             0.000e+00
   O2                     0.000e+00   0.000e+00   -65.865   -65.865         0

------------------------------Saturation indices-------------------------------

	Phase               SI log IAP  log KT

	H2(g)           -10.11  -13.26   -3.15  H2
	H2O(g)           -1.51       0    1.51  H2O
	O2(g)           -62.90  -65.86   -2.96  O2

Time 120. Cell 12: x=          0.022	y=              0	z=              0
Using solution 12.
Using surface 12.
Using kinetics 12.

Kinetics.

	Time:      120 seconds
	Time step: 0.4 seconds

	Rate name       Delta Moles Total Moles   Reactant        Coefficient

	A_decay           6.413e-07   7.500e-04   A                         1

------------------------------Surface composition------------------------------

Surf          
	  0.000e+00  Surface charge, eq
Surf          
	  1.000e+10  moles
	                                   Mole                     Log
	Species               Moles    Fraction    Molality    Molality

	Surf              1.000e+10       1.000   1.000e+10      10.000
	SurfA             7.984e-05           0   7.984e-05      -4.098

-----------------------------Solution composition------------------------------

	Elements           Molality       Moles

	A                 7.984e-05   7.984e-05

----------------------------Description of solution----------------------------

                                       pH  =   7.000      Charge balance
                                       pe  =  -1.916      Adjusted to redox equilibrium
                        Activity of water  =   1.000
                           Ionic strength  =   1.001e-07
                       Mass of water (kg)  =   1.000e+00
                 Total alkalinity (eq/kg)  =   1.082e-10
                    Total carbon (mol/kg)  =   0.000e+00
                       Total CO2 (mol/kg)  =   0.000e+00
                      Temperature (deg C)  =  25.000
                  Electrical balance (eq)  =  -1.082e-10
 Percent error, 100*(Cat-|An|)/(Cat+|An|)  =  -0.05
                               Iterations  =   5
                                  Total H  = 1.110124e+02
                                  Total O  = 5.550622e+01

----------------------------Distribution of species----------------------------

                                                   Log       Log         Log 
   Species                 Molality    Activity  Molality  Activity     Gamma

   OH-                    1.001e-07   1.001e-07    -6.999    -7.000         0
   H+                     1.000e-07   1.000e-07    -7.000    -7.000         0
   H2O                    5.551e+01   1.000e+00     1.744         0         0
A                7.984e-05
   A                      7.984e-05   7.984e-05    -4.098    -4.098         0
H(0)             9.625e-14
   H2                     4.813e-14   4.813e-14   -13.318   -13.318         0
O(0)             0.000e+00
   O2                     0.000e+00   0.000e+00   -65.745   -65.745         0

------------------------------Saturation indices-------------------------------

	Phase               SI log IAP  log KT

	H2(g)           -10.17  -13.32   -3.15  H2
	H2O(g)           -1.51       0    1.51  H2O
	O2(g)           -62.78  -65.74   -2.96  O2

Time 120. Cell 13: x=          0.024	y=              0	z=              0
Using solution 13.
Using surface 13.
Using kinetics 13.

Kinetics.

	Time:      120 seconds
	Time step: 0.4 seconds

	Rate name       Delta Moles Total Moles   Reactant        Coefficient

	A_decay           9.339e-07   7.122e-04   A                         1

------------------------------Surface composition------------------------------

Surf          
	  0.000e+00  Surface charge, eq
Surf          
	  1.000e+10  moles
	                                   Mole                     Log
	Species               Moles    Fraction    Molality    Molality

	Surf              1.000e+10       1.000   1.000e+10      10.000
	SurfA             1.163e-04           0   1.163e-04      -3.935

-----------------------------Solution composition------------------------------

	Elements           Molality       Moles

	A                 1.163e-04   1.163e-04

----------------------------Description of solution----------------------------

                                       pH  =   7.000      Charge balance
                                       pe  =  11.064      Adjusted to redox equilibrium
                        Activity of water  =   1.000
                           Ionic strength  =   1.001e-07
                       Mass of water (kg)  =   1.000e+00
                 Total alkalinity (eq/kg)  =   1.082e-10
                    Total carbon (mol/kg)  =   0.000e+00
                       Total CO2 (mol/kg)  =   0.000e+00
                      Temperature (deg C)  =  25.000
                  Electrical balance (eq)  =  -1.082e-10
 Percent error, 100*(Cat-|An|)/(Cat+|An|)  =  -0.05
                               Iterations  =   5
                                  Total H  = 1.110124e+02
                                  Total O  = 5.550622e+01

----------------------------Distribution of species----------------------------

                                                   Log       Log         Log 
   Species                 Molality    Activity  Molality  Activity     Gamma

   OH-                    1.001e-07   1.001e-07    -6.999    -7.000         0
   H+                     1.000e-07   1.000e-07    -7.000    -7.000         0
   H2O                    5.551e+01   1.000e+00     1.744         0         0
A                1.163e-04
   A                      1.163e-04   1.163e-04    -3.935    -3.935         0
H(0)             1.053e-39
   H2                     5.264e-40   5.264e-40   -39.279   -39.279         0
O(0)             3.009e-14
   O2                     1.505e-14   1.505e-14   -13.823   -13.823         0

------------------------------Saturation indices-------------------------------

	Phase               SI log IAP  log KT

	H2(g)           -36.13  -39.28   -3.15  H2
	H2O(g)           -1.51       0    1.51  H2O
	O2(g)           -10.86  -13.82   -2.96  O2

Time 120. Cell 14: x=          0.026	y=              0	z=              0
Using solution 14.
Using surface 14.
Using kinetics 14.

Kinetics.

	Time:      120 seconds
	Time step: 0.4 seconds

	Rate name       Delta Moles Total Moles   Reactant        Coefficient

	A_decay           1.271e-06   6.727e-04   A                         1

------------------------------Surface composition------------------------------

Surf          
	  0.000e+00  Surface charge, eq
Surf          
	  1.000e+10  moles
	                                   Mole                     Log
	Species               Moles    Fraction    Molality    Molality

	Surf              1.000e+10       1.000   1.000e+10      10.000
	SurfA             1.583e-04           0   1.583e-04      -3.801

-----------------------------Solution composition------------------------------

	Elements           Molality       Moles

	A                 1.583e-04   1.583e-04

----------------------------Description of solution----------------------------

                                       pH  =   7.000      Charge balance
                                       pe  =  11.312      Adjusted to redox equilibrium
                        Activity of water  =   1.000
                           Ionic strength  =   1.001e-07
                       Mass of water (kg)  =   1.000e+00
                 Total alkalinity (eq/kg)  =   1.082e-10
                    Total carbon (mol/kg)  =   0.000e+00
                       Total CO2 (mol/kg)  =   0.000e+00
                      Temperature (deg C)  =  25.000
                  Electrical balance (eq)  =  -1.082e-10
 Percent error, 100*(Cat-|An|)/(Cat+|An|)  =  -0.05
                               Iterations  =   5
                                  Total H  = 1.110124e+02
                                  Total O  = 5.550622e+01

----------------------------Distribution of species----------------------------

                                                   Log       Log         Log 
   Species                 Molality    Activity  Molality  Activity     Gamma

   OH-                    1.001e-07   1.001e-07    -6.999    -7.000         0
   H+                     1.000e-07   1.000e-07    -7.000    -7.000         0
   H2O                    5.551e+01   1.000e+00     1.744         0         0
A                1.583e-04
   A                      1.583e-04   1.583e-04    -3.801    -3.801         0
H(0)             3.373e-40
   H2                     1.687e-40   1.687e-40   -39.773   -39.773         0
O(0)             2.931e-13
   O2                     1.466e-13   1.466e-13   -12.834   -12.834         0

------------------------------Saturation indices-------------------------------

	Phase               SI log IAP  log KT

	H2(g)           -36.62  -39.77   -3.15  H2
	H2O(g)           -1.51       0    1.51  H2O
	O2(g)            -9.87  -12.83   -2.96  O2

Time 120. Cell 15: x=          0.028	y=              0	z=              0
Using solution 15.
Using surface 15.
Using kinetics 15.

Kinetics.

	Time:      120 seconds
	Time step: 0.4 seconds

	Rate name       Delta Moles Total Moles   Reactant        Coefficient

	A_decay           1.631e-06   6.313e-04   A                         1

------------------------------Surface composition------------------------------

Surf          
	  0.000e+00  Surface charge, eq
Surf          
	  1.000e+10  moles
	                                   Mole                     Log
	Species               Moles    Fraction    Molality    Molality

	Surf              1.000e+10       1.000   1.000e+10      10.000
	SurfA             2.030e-04           0   2.030e-04      -3.693

-----------------------------Solution composition------------------------------

	Elements           Molality       Moles

	A                 2.030e-04   2.030e-04

----------------------------Description of solution----------------------------

                                       pH  =   7.000      Charge balance
                                       pe  =  11.445      Adjusted to redox equilibrium
                        Activity of water  =   1.000
                           Ionic strength  =   1.001e-07
                       Mass of water (kg)  =   1.000e+00
                 Total alkalinity (eq/kg)  =   1.082e-10
                    Total carbon (mol/kg)  =   0.000e+00
                       Total CO2 (mol/kg)  =   0.000e+00
                      Temperature (deg C)  =  25.000
                  Electrical balance (eq)  =  -1.082e-10
 Percent error, 100*(Cat-|An|)/(Cat+|An|)  =  -0.05
                               Iterations  =   5
                                  Total H  = 1.110124e+02
                                  Total O  = 5.550622e+01

----------------------------Distribution of species----------------------------

                                                   Log       Log         Log 
   Species                 Molality    Activity  Molality  Activity     Gamma

   OH-                    1.001e-07   1.001e-07    -6.999    -7.000         0
   H+                     1.000e-07   1.000e-07    -7.000    -7.000         0
   H2O                    5.551e+01   1.000e+00     1.744         0         0
A                2.030e-04
   A                      2.030e-04   2.030e-04    -3.693    -3.693         0
H(0)             0.000e+00
   H2                     0.000e+00   0.000e+00   -40.040   -40.040         0
O(0)             1.004e-12
   O2                     5.020e-13   5.020e-13   -12.299   -12.299         0

------------------------------Saturation indices-------------------------------

	Phase               SI log IAP  log KT

	H2(g)           -36.89  -40.04   -3.15  H2
	H2O(g)           -1.51       0    1.51  H2O
	O2(g)            -9.34  -12.30   -2.96  O2

Time 120. Cell 16: x=           0.03	y=              0	z=              0
Using solution 16.
Using surface 16.
Using kinetics 16.

Kinetics.

	Time:      120 seconds
	Time step: 0.4 seconds

	Rate name       Delta Moles Total Moles   Reactant        Coefficient

	A_decay           1.985e-06   5.880e-04   A                         1

------------------------------Surface composition------------------------------

Surf          
	  0.000e+00  Surface charge, eq
Surf          
	  1.000e+10  moles
	                                   Mole                     Log
	Species               Moles    Fraction    Molality    Molality

	Surf              1.000e+10       1.000   1.000e+10      10.000
	SurfA             2.472e-04           0   2.472e-04      -3.607

-----------------------------Solution composition------------------------------

	Elements           Molality       Moles

	A                 2.472e-04   2.472e-04

----------------------------Description of solution----------------------------

                                       pH  =   7.000      Charge balance
                                       pe  =  11.552      Adjusted to redox equilibrium
                        Activity of water  =   1.000
                           Ionic strength  =   1.001e-07
                       Mass of water (kg)  =   1.000e+00
                 Total alkalinity (eq/kg)  =   1.082e-10
                    Total carbon (mol/kg)  =   0.000e+00
                       Total CO2 (mol/kg)  =   0.000e+00
                      Temperature (deg C)  =  25.000
                  Electrical balance (eq)  =  -1.082e-10
 Percent error, 100*(Cat-|An|)/(Cat+|An|)  =  -0.05
                               Iterations  =   5
                                  Total H  = 1.110124e+02
                                  Total O  = 5.550622e+01

----------------------------Distribution of species----------------------------

                                                   Log       Log         Log 
   Species                 Molality    Activity  Molality  Activity     Gamma

   OH-                    1.001e-07   1.001e-07    -6.999    -7.000         0
   H+                     1.000e-07   1.000e-07    -7.000    -7.000         0
   H2O                    5.551e+01   1.000e+00     1.744         0         0
A                2.472e-04
   A                      2.472e-04   2.472e-04    -3.607    -3.607         0
H(0)             0.000e+00
   H2                     0.000e+00   0.000e+00   -40.254   -40.254         0
O(0)             2.681e-12
   O2                     1.341e-12   1.341e-12   -11.873   -11.873         0

------------------------------Saturation indices-------------------------------

	Phase               SI log IAP  log KT

	H2(g)           -37.10  -40.25   -3.15  H2
	H2O(g)           -1.51       0    1.51  H2O
	O2(g)            -8.91  -11.87   -2.96  O2

Time 120. Cell 17: x=          0.032	y=              0	z=              0
Using solution 17.
Using surface 17.
Using kinetics 17.

Kinetics.

	Time:      120 seconds
	Time step: 0.4 seconds

	Rate name       Delta Moles Total Moles   Reactant        Coefficient

	A_decay           2.309e-06   5.433e-04   A                         1

------------------------------Surface composition------------------------------

Surf          
	  0.000e+00  Surface charge, eq
Surf          
	  1.000e+10  moles
	                                   Mole                     Log
	Species               Moles    Fraction    Molality    Molality

	Surf              1.000e+10       1.000   1.000e+10      10.000
	SurfA             2.875e-04           0   2.875e-04      -3.541

-----------------------------Solution composition------------------------------

	Elements           Molality       Moles

	A                 2.875e-04   2.875e-04

----------------------------Description of solution----------------------------

                                       pH  =   7.000      Charge balance
                                       pe  =  11.644      Adjusted to redox equilibrium
                        Activity of water  =   1.000
                           Ionic strength  =   1.001e-07
                       Mass of water (kg)  =   1.000e+00
                 Total alkalinity (eq/kg)  =   1.082e-10
                    Total carbon (mol/kg)  =   0.000e+00
                       Total CO2 (mol/kg)  =   0.000e+00
                      Temperature (deg C)  =  25.000
                  Electrical balance (eq)  =  -1.082e-10
 Percent error, 100*(Cat-|An|)/(Cat+|An|)  =  -0.05
                               Iterations  =   4
                                  Total H  = 1.110124e+02
                                  Total O  = 5.550622e+01

----------------------------Distribution of species----------------------------

                                                   Log       Log         Log 
   Species                 Molality    Activity  Molality  Activity     Gamma

   OH-                    1.001e-07   1.001e-07    -6.999    -7.000         0
   H+                     1.000e-07   1.000e-07    -7.000    -7.000         0
   H2O                    5.551e+01   1.000e+00     1.744         0         0
A                2.875e-04
   A                      2.875e-04   2.875e-04    -3.541    -3.541         0
H(0)             0.000e+00
   H2                     0.000e+00   0.000e+00   -40.437   -40.437         0
O(0)             6.250e-12
   O2                     3.125e-12   3.125e-12   -11.505   -11.505         0

------------------------------Saturation indices-------------------------------

	Phase               SI log IAP  log KT

	H2(g)           -37.29  -40.44   -3.15  H2
	H2O(g)           -1.51       0    1.51  H2O
	O2(g)            -8.55  -11.51   -2.96  O2

Time 120. Cell 18: x=          0.034	y=              0	z=              0
Using solution 18.
Using surface 18.
Using kinetics 18.

Kinetics.

	Time:      120 seconds
	Time step: 0.4 seconds

	Rate name       Delta Moles Total Moles   Reactant        Coefficient

	A_decay           2.578e-06   4.978e-04   A                         1

------------------------------Surface composition------------------------------

Surf          
	  0.000e+00  Surface charge, eq
Surf          
	  1.000e+10  moles
	                                   Mole                     Log
	Species               Moles    Fraction    Molality    Molality

	Surf              1.000e+10       1.000   1.000e+10      10.000
	SurfA             3.213e-04           0   3.213e-04      -3.493

-----------------------------Solution composition------------------------------

	Elements           Molality       Moles

	A                 3.213e-04   3.213e-04

----------------------------Description of solution----------------------------

                                       pH  =   7.000      Charge balance
                                       pe  =  11.724      Adjusted to redox equilibrium
                        Activity of water  =   1.000
                           Ionic strength  =   1.001e-07
                       Mass of water (kg)  =   1.000e+00
                 Total alkalinity (eq/kg)  =   1.082e-10
                    Total carbon (mol/kg)  =   0.000e+00
                       Total CO2 (mol/kg)  =   0.000e+00
                      Temperature (deg C)  =  25.000
                  Electrical balance (eq)  =  -1.082e-10
 Percent error, 100*(Cat-|An|)/(Cat+|An|)  =  -0.05
                               Iterations  =   8
                                  Total H  = 1.110124e+02
                                  Total O  = 5.550622e+01

----------------------------Distribution of species----------------------------

                                                   Log       Log         Log 
   Species                 Molality    Activity  Molality  Activity     Gamma

   OH-                    1.001e-07   1.001e-07    -6.999    -7.000         0
   H+                     1.000e-07   1.000e-07    -7.000    -7.000         0
   H2O                    5.551e+01   1.000e+00     1.744         0         0
A                3.213e-04
   A                      3.213e-04   3.213e-04    -3.493    -3.493         0
H(0)             0.000e+00
   H2                     0.000e+00   0.000e+00   -40.599   -40.599         0
O(0)             1.314e-11
   O2                     6.572e-12   6.572e-12   -11.182   -11.182         0

------------------------------Saturation indices-------------------------------

	Phase               SI log IAP  log KT

	H2(g)           -37.45  -40.60   -3.15  H2
	H2O(g)           -1.51       0    1.51  H2O
	O2(g)            -8.22  -11.18   -2.96  O2

Time 120. Cell 19: x=          0.036	y=              0	z=              0
Using solution 19.
Using surface 19.
Using kinetics 19.

Kinetics.

	Time:      120 seconds
	Time step: 0.4 seconds

	Rate name       Delta Moles Total Moles   Reactant        Coefficient

	A_decay           2.784e-06   4.520e-04   A                         1

------------------------------Surface composition------------------------------

Surf          
	  0.000e+00  Surface charge, eq
Surf          
	  1.000e+10  moles
	                                   Mole                     Log
	Species               Moles    Fraction    Molality    Molality

	Surf              1.000e+10       1.000   1.000e+10      10.000
	SurfA             3.470e-04           0   3.470e-04      -3.460

-----------------------------Solution composition------------------------------

	Elements           Molality       Moles

	A                 3.470e-04   3.470e-04

----------------------------Description of solution----------------------------

                                       pH  =   7.000      Charge balance
                                       pe  =  11.798      Adjusted to redox equilibrium
                        Activity of water  =   1.000
                           Ionic strength  =   1.001e-07
                       Mass of water (kg)  =   1.000e+00
                 Total alkalinity (eq/kg)  =   1.082e-10
                    Total carbon (mol/kg)  =   0.000e+00
                       Total CO2 (mol/kg)  =   0.000e+00
                      Temperature (deg C)  =  25.000
                  Electrical balance (eq)  =  -1.082e-10
 Percent error, 100*(Cat-|An|)/(Cat+|An|)  =  -0.05
                               Iterations  =   8
                                  Total H  = 1.110124e+02
                                  Total O  = 5.550622e+01

----------------------------Distribution of species----------------------------

                                                   Log       Log         Log 
   Species                 Molality    Activity  Molality  Activity     Gamma

   OH-                    1.001e-07   1.001e-07    -6.999    -7.000         0
   H+                     1.000e-07   1.000e-07    -7.000    -7.000         0
   H2O                    5.551e+01   1.000e+00     1.744         0         0
A                3.470e-04
   A                      3.470e-04   3.470e-04    -3.460    -3.460         0
H(0)             0.000e+00
   H2                     0.000e+00   0.000e+00   -40.745   -40.745         0
O(0)             2.577e-11
   O2                     1.288e-11   1.288e-11   -10.890   -10.890         0

------------------------------Saturation indices-------------------------------

	Phase               SI log IAP  log KT

	H2(g)           -37.60  -40.75   -3.15  H2
	H2O(g)           -1.51       0    1.51  H2O
	O2(g)            -7.93  -10.89   -2.96  O2

Time 120. Cell 20: x=          0.038	y=              0	z=              0
Using solution 20.
Using surface 20.
Using kinetics 20.

Kinetics.

	Time:      120 seconds
	Time step: 0.4 seconds

	Rate name       Delta Moles Total Moles   Reactant        Coefficient

	A_decay           2.918e-06   4.067e-04   A                         1

------------------------------Surface composition------------------------------

Surf          
	  0.000e+00  Surface charge, eq
Surf          
	  1.000e+10  moles
	                                   Mole                     Log
	Species               Moles    Fraction    Molality    Molality

	Surf              1.000e+10       1.000   1.000e+10      10.000
	SurfA             3.637e-04           0   3.637e-04      -3.439

-----------------------------Solution composition------------------------------

	Elements           Molality       Moles

	A                 3.637e-04   3.637e-04

----------------------------Description of solution----------------------------

                                       pH  =   7.000      Charge balance
                                       pe  =  11.864      Adjusted to redox equilibrium
                        Activity of water  =   1.000
                           Ionic strength  =   1.001e-07
                       Mass of water (kg)  =   1.000e+00
                 Total alkalinity (eq/kg)  =   1.082e-10
                    Total carbon (mol/kg)  =   0.000e+00
                       Total CO2 (mol/kg)  =   0.000e+00
                      Temperature (deg C)  =  25.000
                  Electrical balance (eq)  =  -1.082e-10
 Percent error, 100*(Cat-|An|)/(Cat+|An|)  =  -0.05
                               Iterations  =   8
                                  Total H  = 1.110124e+02
                                  Total O  = 5.550622e+01

----------------------------Distribution of species----------------------------

                                                   Log       Log         Log 
   Species                 Molality    Activity  Molality  Activity     Gamma

   OH-                    1.001e-07   1.001e-07    -6.999    -7.000         0
   H+                     1.000e-07   1.000e-07    -7.000    -7.000         0
   H2O                    5.551e+01   1.000e+00     1.744         0         0
A                3.637e-04
   A                      3.637e-04   3.637e-04    -3.439    -3.439         0
H(0)             0.000e+00
   H2                     0.000e+00   0.000e+00   -40.878   -40.878         0
O(0)             4.749e-11
   O2                     2.375e-11   2.375e-11   -10.624   -10.624         0

------------------------------Saturation indices-------------------------------

	Phase               SI log IAP  log KT

	H2(g)           -37.73  -40.88   -3.15  H2
	H2O(g)           -1.51       0    1.51  H2O
	O2(g)            -7.66  -10.62   -2.96  O2

Time 120. Cell 21: x=           0.04	y=              0	z=              0
Using solution 21.
Using surface 21.
Using kinetics 21.

Kinetics.

	Time:      120 seconds
	Time step: 0.4 seconds

	Rate name       Delta Moles Total Moles   Reactant        Coefficient

	A_decay           2.981e-06   3.625e-04   A                         1

------------------------------Surface composition------------------------------

Surf          
	  0.000e+00  Surface charge, eq
Surf          
	  1.000e+10  moles
	                                   Mole                     Log
	Species               Moles    Fraction    Molality    Molality

	Surf              1.000e+10       1.000   1.000e+10      10.000
	SurfA             3.716e-04           0   3.716e-04      -3.430

-----------------------------Solution composition------------------------------

	Elements           Molality       Moles

	A                 3.716e-04   3.716e-04

----------------------------Description of solution----------------------------

                                       pH  =   7.000      Charge balance
                                       pe  =  11.924      Adjusted to redox equilibrium
                        Activity of water  =   1.000
                           Ionic strength  =   1.001e-07
                       Mass of water (kg)  =   1.000e+00
                 Total alkalinity (eq/kg)  =   1.082e-10
                    Total carbon (mol/kg)  =   0.000e+00
                       Total CO2 (mol/kg)  =   0.000e+00
                      Temperature (deg C)  =  25.000
                  Electrical balance (eq)  =  -1.082e-10
 Percent error, 100*(Cat-|An|)/(Cat+|An|)  =  -0.05
                               Iterations  =   8
                                  Total H  = 1.110124e+02
                                  Total O  = 5.550622e+01

----------------------------Distribution of species----------------------------

                                                   Log       Log         Log 
   Species                 Molality    Activity  Molality  Activity     Gamma

   OH-                    1.001e-07   1.001e-07    -6.999    -7.000         0
   H+                     1.000e-07   1.000e-07    -7.000    -7.000         0
   H2O                    5.551e+01   1.000e+00     1.744         0         0
A                3.716e-04
   A                      3.716e-04   3.716e-04    -3.430    -3.430         0
H(0)             0.000e+00
   H2                     0.000e+00   0.000e+00   -40.999   -40.999         0
O(0)             8.280e-11
   O2                     4.140e-11   4.140e-11   -10.383   -10.383         0

------------------------------Saturation indices-------------------------------

	Phase               SI log IAP  log KT

	H2(g)           -37.85  -41.00   -3.15  H2
	H2O(g)           -1.51       0    1.51  H2O
	O2(g)            -7.42  -10.38   -2.96  O2

Time 120. Cell 22: x=          0.042	y=              0	z=              0
Using solution 22.
Using surface 22.
Using kinetics 22.

Kinetics.

	Time:      120 seconds
	Time step: 0.4 seconds

	Rate name       Delta Moles Total Moles   Reactant        Coefficient

	A_decay           2.978e-06   3.201e-04   A                         1

------------------------------Surface composition------------------------------

Surf          
	  0.000e+00  Surface charge, eq
Surf          
	  1.000e+10  moles
	                                   Mole                     Log
	Species               Moles    Fraction    Molality    Molality

	Surf              1.000e+10       1.000   1.000e+10      10.000
	SurfA             3.712e-04           0   3.712e-04      -3.430

-----------------------------Solution composition------------------------------

	Elements           Molality       Moles

	A                 3.712e-04   3.712e-04

----------------------------Description of solution----------------------------

                                       pH  =   7.000      Charge balance
                                       pe  =  11.979      Adjusted to redox equilibrium
                        Activity of water  =   1.000
                           Ionic strength  =   1.001e-07
                       Mass of water (kg)  =   1.000e+00
                 Total alkalinity (eq/kg)  =   1.081e-10
                    Total carbon (mol/kg)  =   0.000e+00
                       Total CO2 (mol/kg)  =   0.000e+00
                      Temperature (deg C)  =  25.000
                  Electrical balance (eq)  =  -1.081e-10
 Percent error, 100*(Cat-|An|)/(Cat+|An|)  =  -0.05
                               Iterations  =   7
                                  Total H  = 1.110124e+02
                                  Total O  = 5.550622e+01

----------------------------Distribution of species----------------------------

                                                   Log       Log         Log 
   Species                 Molality    Activity  Molality  Activity     Gamma

   OH-                    1.001e-07   1.001e-07    -6.999    -7.000         0
   H+                     1.000e-07   1.000e-07    -7.000    -7.000         0
   H2O                    5.551e+01   1.000e+00     1.744         0         0
A                3.712e-04
   A                      3.712e-04   3.712e-04    -3.430    -3.430         0
H(0)             0.000e+00
   H2                     0.000e+00   0.000e+00   -41.108   -41.108         0
O(0)             1.371e-10
   O2                     6.853e-11   6.853e-11   -10.164   -10.164         0

------------------------------Saturation indices-------------------------------

	Phase               SI log IAP  log KT

	H2(g)           -37.96  -41.11   -3.15  H2
	H2O(g)           -1.51       0    1.51  H2O
	O2(g)            -7.20  -10.16   -2.96  O2

Time 120. Cell 23: x=          0.044	y=              0	z=              0
Using solution 23.
Using surface 23.
Using kinetics 23.

Kinetics.

	Time:      120 seconds
	Time step: 0.4 seconds

	Rate name       Delta Moles Total Moles   Reactant        Coefficient

	A_decay           2.918e-06   2.798e-04   A                         1

------------------------------Surface composition------------------------------

Surf          
	  0.000e+00  Surface charge, eq
Surf          
	  1.000e+10  moles
	                                   Mole                     Log
	Species               Moles    Fraction    Molality    Molality

	Surf              1.000e+10       1.000   1.000e+10      10.000
	SurfA             3.637e-04           0   3.637e-04      -3.439

-----------------------------Solution composition------------------------------

	Elements           Molality       Moles

	A                 3.637e-04   3.637e-04

----------------------------Description of solution----------------------------

                                       pH  =   7.000      Charge balance
                                       pe  =  12.028      Adjusted to redox equilibrium
                        Activity of water  =   1.000
                           Ionic strength  =   1.001e-07
                       Mass of water (kg)  =   1.000e+00
                 Total alkalinity (eq/kg)  =   1.081e-10
                    Total carbon (mol/kg)  =   0.000e+00
                       Total CO2 (mol/kg)  =   0.000e+00
                      Temperature (deg C)  =  25.000
                  Electrical balance (eq)  =  -1.081e-10
 Percent error, 100*(Cat-|An|)/(Cat+|An|)  =  -0.05
                               Iterations  =   8
                                  Total H  = 1.110124e+02
                                  Total O  = 5.550622e+01

----------------------------Distribution of species----------------------------

                                                   Log       Log         Log 
   Species                 Molality    Activity  Molality  Activity     Gamma

   OH-                    1.001e-07   1.001e-07    -6.999    -7.000         0
   H+                     1.000e-07   1.000e-07    -7.000    -7.000         0
   H2O                    5.551e+01   1.000e+00     1.744         0         0
A                3.637e-04
   A                      3.637e-04   3.637e-04    -3.439    -3.439         0
H(0)             0.000e+00
   H2                     0.000e+00   0.000e+00   -41.205   -41.205         0
O(0)             2.144e-10
   O2                     1.072e-10   1.072e-10    -9.970    -9.970         0

------------------------------Saturation indices-------------------------------

	Phase               SI log IAP  log KT

	H2(g)           -38.06  -41.21   -3.15  H2
	H2O(g)           -1.51       0    1.51  H2O
	O2(g)            -7.01   -9.97   -2.96  O2

Time 120. Cell 24: x=          0.046	y=              0	z=              0
Using solution 24.
Using surface 24.
Using kinetics 24.

Kinetics.

	Time:      120 seconds
	Time step: 0.4 seconds

	Rate name       Delta Moles Total Moles   Reactant        Coefficient

	A_decay           2.809e-06   2.422e-04   A                         1

------------------------------Surface composition------------------------------

Surf          
	  0.000e+00  Surface charge, eq
Surf          
	  1.000e+10  moles
	                                   Mole                     Log
	Species               Moles    Fraction    Molality    Molality

	Surf              1.000e+10       1.000   1.000e+10      10.000
	SurfA             3.501e-04           0   3.501e-04      -3.456

-----------------------------Solution composition------------------------------

	Elements           Molality       Moles

	A                 3.501e-04   3.501e-04

----------------------------Description of solution----------------------------

                                       pH  =   7.000      Charge balance
                                       pe  =  12.071      Adjusted to redox equilibrium
                        Activity of water  =   1.000
                           Ionic strength  =   1.001e-07
                       Mass of water (kg)  =   1.000e+00
                 Total alkalinity (eq/kg)  =   1.080e-10
                    Total carbon (mol/kg)  =   0.000e+00
                       Total CO2 (mol/kg)  =   0.000e+00
                      Temperature (deg C)  =  25.000
                  Electrical balance (eq)  =  -1.080e-10
 Percent error, 100*(Cat-|An|)/(Cat+|An|)  =  -0.05
                               Iterations  =   8
                                  Total H  = 1.110124e+02
                                  Total O  = 5.550622e+01

----------------------------Distribution of species----------------------------

                                                   Log       Log         Log 
   Species                 Molality    Activity  Molality  Activity     Gamma

   OH-                    1.001e-07   1.001e-07    -6.999    -7.000         0
   H+                     1.000e-07   1.000e-07    -7.000    -7.000         0
   H2O                    5.551e+01   1.000e+00     1.744         0         0
A                3.501e-04
   A                      3.501e-04   3.501e-04    -3.456    -3.456         0
H(0)             0.000e+00
   H2                     0.000e+00   0.000e+00   -41.293   -41.293         0
O(0)             3.212e-10
   O2                     1.606e-10   1.606e-10    -9.794    -9.794         0

------------------------------Saturation indices-------------------------------

	Phase               SI log IAP  log KT

	H2(g)           -38.14  -41.29   -3.15  H2
	H2O(g)           -1.51       0    1.51  H2O
	O2(g)            -6.83   -9.79   -2.96  O2

Time 120. Cell 25: x=          0.048	y=              0	z=              0
Using solution 25.
Using surface 25.
Using kinetics 25.

Kinetics.

	Time:      120 seconds
	Time step: 0.4 seconds

	Rate name       Delta Moles Total Moles   Reactant        Coefficient

	A_decay           2.660e-06   2.074e-04   A                         1

------------------------------Surface composition------------------------------

Surf          
	  0.000e+00  Surface charge, eq
Surf          
	  1.000e+10  moles
	                                   Mole                     Log
	Species               Moles    Fraction    Molality    Molality

	Surf              1.000e+10       1.000   1.000e+10      10.000
	SurfA             3.316e-04           0   3.316e-04      -3.479

-----------------------------Solution composition------------------------------

	Elements           Molality       Moles

	A                 3.316e-04   3.316e-04

----------------------------Description of solution----------------------------

                                       pH  =   7.000      Charge balance
                                       pe  =  12.111      Adjusted to redox equilibrium
                        Activity of water  =   1.000
                           Ionic strength  =   1.001e-07
                       Mass of water (kg)  =   1.000e+00
                 Total alkalinity (eq/kg)  =   1.080e-10
                    Total carbon (mol/kg)  =   0.000e+00
                       Total CO2 (mol/kg)  =   0.000e+00
                      Temperature (deg C)  =  25.000
                  Electrical balance (eq)  =  -1.080e-10
 Percent error, 100*(Cat-|An|)/(Cat+|An|)  =  -0.05
                               Iterations  =   8
                                  Total H  = 1.110124e+02
                                  Total O  = 5.550622e+01

----------------------------Distribution of species----------------------------

                                                   Log       Log         Log 
   Species                 Molality    Activity  Molality  Activity     Gamma

   OH-                    1.001e-07   1.001e-07    -6.999    -7.000         0
   H+                     1.000e-07   1.000e-07    -7.000    -7.000         0
   H2O                    5.551e+01   1.000e+00     1.744         0         0
A                3.316e-04
   A                      3.316e-04   3.316e-04    -3.479    -3.479         0
H(0)             0.000e+00
   H2                     0.000e+00   0.000e+00   -41.371   -41.371         0
O(0)             4.607e-10
   O2                     2.303e-10   2.303e-10    -9.638    -9.638         0

------------------------------Saturation indices-------------------------------

	Phase               SI log IAP  log KT

	H2(g)           -38.22  -41.37   -3.15  H2
	H2O(g)           -1.51       0    1.51  H2O
	O2(g)            -6.68   -9.64   -2.96  O2

Time 120. Cell 26: x=           0.05	y=              0	z=              0
Using solution 26.
Using surface 26.
Using kinetics 26.

Kinetics.

	Time:      120 seconds
	Time step: 0.4 seconds

	Rate name       Delta Moles Total Moles   Reactant        Coefficient

	A_decay           2.484e-06   1.757e-04   A                         1

------------------------------Surface composition------------------------------

Surf          
	  0.000e+00  Surface charge, eq
Surf          
	  1.000e+10  moles
	                                   Mole                     Log
	Species               Moles    Fraction    Molality    Molality

	Surf              1.000e+10       1.000   1.000e+10      10.000
	SurfA             3.093e-04           0   3.093e-04      -3.510

-----------------------------Solution composition------------------------------

	Elements           Molality       Moles

	A                 3.093e-04   3.093e-04

----------------------------Description of solution----------------------------

                                       pH  =   7.000      Charge balance
                                       pe  =  12.145      Adjusted to redox equilibrium
                        Activity of water  =   1.000
                           Ionic strength  =   1.001e-07
[...]

	Time:      120 seconds
	Time step: 0.4 seconds

	Rate name       Delta Moles Total Moles   Reactant        Coefficient

	A_decay           2.225e-10   2.946e-09   A                         1

------------------------------Surface composition------------------------------

Surf          
	  0.000e+00  Surface charge, eq
Surf          
	  1.000e+10  moles
	                                   Mole                     Log
	Species               Moles    Fraction    Molality    Molality

	Surf              1.000e+10       1.000   1.000e+10      10.000
	SurfA             2.770e-08           0   2.770e-08      -7.557

-----------------------------Solution composition------------------------------

	Elements           Molality       Moles

	A                 2.770e-08   2.770e-08

----------------------------Description of solution----------------------------

                                       pH  =   7.000      Charge balance
                                       pe  =  12.291      Adjusted to redox equilibrium
                        Activity of water  =   1.000
                           Ionic strength  =   1.001e-07
                       Mass of water (kg)  =   1.000e+00
                 Total alkalinity (eq/kg)  =   1.069e-10
                    Total carbon (mol/kg)  =   0.000e+00
                       Total CO2 (mol/kg)  =   0.000e+00
                      Temperature (deg C)  =  25.000
                  Electrical balance (eq)  =  -1.069e-10
 Percent error, 100*(Cat-|An|)/(Cat+|An|)  =  -0.05
                               Iterations  =   5
                                  Total H  = 1.110124e+02
                                  Total O  = 5.550622e+01

----------------------------Distribution of species----------------------------

                                                   Log       Log         Log 
   Species                 Molality    Activity  Molality  Activity     Gamma

   OH-                    1.001e-07   1.001e-07    -6.999    -7.000         0
   H+                     1.000e-07   1.000e-07    -7.000    -7.000         0
   H2O                    5.551e+01   1.000e+00     1.744         0         0
A                2.770e-08
   A                      2.770e-08   2.770e-08    -7.557    -7.557         0
H(0)             0.000e+00
   H2                     0.000e+00   0.000e+00   -41.732   -41.732         0
O(0)             2.425e-09
   O2                     1.213e-09   1.213e-09    -8.916    -8.916         0

------------------------------Saturation indices-------------------------------

	Phase               SI log IAP  log KT

	H2(g)           -38.58  -41.73   -3.15  H2
	H2O(g)           -1.51       0    1.51  H2O
	O2(g)            -5.96   -8.92   -2.96  O2

Time 120. Cell 56: x=           0.11	y=              0	z=              0
Using solution 56.
Using surface 56.
Using kinetics 56.

Kinetics.

	Time:      120 seconds
	Time step: 0.4 seconds

	Rate name       Delta Moles Total Moles   Reactant        Coefficient

	A_decay           1.264e-10   1.622e-09   A                         1

------------------------------Surface composition------------------------------

Surf          
	  0.000e+00  Surface charge, eq
Surf          
	  1.000e+10  moles
	                                   Mole                     Log
	Species               Moles    Fraction    Molality    Molality

	Surf              1.000e+10       1.000   1.000e+10      10.000
	SurfA             1.574e-08           0   1.574e-08      -7.803

-----------------------------Solution composition------------------------------

	Elements           Molality       Moles

	A                 1.574e-08   1.574e-08

----------------------------Description of solution----------------------------

                                       pH  =   7.000      Charge balance
                                       pe  =  12.294      Adjusted to redox equilibrium
                        Activity of water  =   1.000
                           Ionic strength  =   1.001e-07
                       Mass of water (kg)  =   1.000e+00
                 Total alkalinity (eq/kg)  =   1.069e-10
                    Total carbon (mol/kg)  =   0.000e+00
                       Total CO2 (mol/kg)  =   0.000e+00
                      Temperature (deg C)  =  25.000
                  Electrical balance (eq)  =  -1.069e-10
 Percent error, 100*(Cat-|An|)/(Cat+|An|)  =  -0.05
                               Iterations  =   5
                                  Total H  = 1.110124e+02
                                  Total O  = 5.550622e+01

----------------------------Distribution of species----------------------------

                                                   Log       Log         Log 
   Species                 Molality    Activity  Molality  Activity     Gamma

   OH-                    1.001e-07   1.001e-07    -6.999    -7.000         0
   H+                     1.000e-07   1.000e-07    -7.000    -7.000         0
   H2O                    5.551e+01   1.000e+00     1.744         0         0
A                1.574e-08
   A                      1.574e-08   1.574e-08    -7.803    -7.803         0
H(0)             0.000e+00
   H2                     0.000e+00   0.000e+00   -41.738   -41.738         0
O(0)             2.496e-09
   O2                     1.248e-09   1.248e-09    -8.904    -8.904         0

------------------------------Saturation indices-------------------------------

	Phase               SI log IAP  log KT

	H2(g)           -38.59  -41.74   -3.15  H2
	H2O(g)           -1.51       0    1.51  H2O
	O2(g)            -5.94   -8.90   -2.96  O2

Time 120. Cell 57: x=          0.112	y=              0	z=              0
Using solution 57.
Using surface 57.
Using kinetics 57.

Kinetics.

	Time:      120 seconds
	Time step: 0.4 seconds

	Rate name       Delta Moles Total Moles   Reactant        Coefficient

	A_decay           7.083e-11   8.817e-10   A                         1

------------------------------Surface composition------------------------------

Surf          
	  0.000e+00  Surface charge, eq
Surf          
	  1.000e+10  moles
	                                   Mole                     Log
	Species               Moles    Fraction    Molality    Molality

	Surf              1.000e+10       1.000   1.000e+10      10.000
	SurfA             8.819e-09           0   8.819e-09      -8.055

-----------------------------Solution composition------------------------------

	Elements           Molality       Moles

	A                 8.819e-09   8.819e-09

----------------------------Description of solution----------------------------

                                       pH  =   7.000      Charge balance
                                       pe  =  12.298      Adjusted to redox equilibrium
                        Activity of water  =   1.000
                           Ionic strength  =   1.001e-07
                       Mass of water (kg)  =   1.000e+00
                 Total alkalinity (eq/kg)  =   1.070e-10
                    Total carbon (mol/kg)  =   0.000e+00
                       Total CO2 (mol/kg)  =   0.000e+00
                      Temperature (deg C)  =  25.000
                  Electrical balance (eq)  =  -1.070e-10
 Percent error, 100*(Cat-|An|)/(Cat+|An|)  =  -0.05
                               Iterations  =   5
                                  Total H  = 1.110124e+02
                                  Total O  = 5.550622e+01

----------------------------Distribution of species----------------------------

                                                   Log       Log         Log 
   Species                 Molality    Activity  Molality  Activity     Gamma

   OH-                    1.001e-07   1.001e-07    -6.999    -7.000         0
   H+                     1.000e-07   1.000e-07    -7.000    -7.000         0
   H2O                    5.551e+01   1.000e+00     1.744         0         0
A                8.819e-09
   A                      8.819e-09   8.819e-09    -8.055    -8.055         0
H(0)             0.000e+00
   H2                     0.000e+00   0.000e+00   -41.745   -41.745         0
O(0)             2.581e-09
   O2                     1.291e-09   1.291e-09    -8.889    -8.889         0

------------------------------Saturation indices-------------------------------

	Phase               SI log IAP  log KT

	H2(g)           -38.60  -41.75   -3.15  H2
	H2O(g)           -1.51       0    1.51  H2O
	O2(g)            -5.93   -8.89   -2.96  O2

Time 120. Cell 58: x=          0.114	y=              0	z=              0
Using solution 58.
Using surface 58.
Using kinetics 58.

Kinetics.

	Time:      120 seconds
	Time step: 0.4 seconds

	Rate name       Delta Moles Total Moles   Reactant        Coefficient

	A_decay           3.914e-11   4.731e-10   A                         1

------------------------------Surface composition------------------------------

Surf          
	  0.000e+00  Surface charge, eq
Surf          
	  1.000e+10  moles
	                                   Mole                     Log
	Species               Moles    Fraction    Molality    Molality

	Surf              1.000e+10       1.000   1.000e+10      10.000
	SurfA             4.873e-09           0   4.873e-09      -8.312

-----------------------------Solution composition------------------------------

	Elements           Molality       Moles

	A                 4.873e-09   4.873e-09

----------------------------Description of solution----------------------------

                                       pH  =   7.000      Charge balance
                                       pe  =  12.302      Adjusted to redox equilibrium
                        Activity of water  =   1.000
                           Ionic strength  =   1.001e-07
                       Mass of water (kg)  =   1.000e+00
                 Total alkalinity (eq/kg)  =   1.071e-10
                    Total carbon (mol/kg)  =   0.000e+00
                       Total CO2 (mol/kg)  =   0.000e+00
                      Temperature (deg C)  =  25.000
                  Electrical balance (eq)  =  -1.071e-10
 Percent error, 100*(Cat-|An|)/(Cat+|An|)  =  -0.05
                               Iterations  =   5
                                  Total H  = 1.110124e+02
                                  Total O  = 5.550622e+01

----------------------------Distribution of species----------------------------

                                                   Log       Log         Log 
   Species                 Molality    Activity  Molality  Activity     Gamma

   OH-                    1.001e-07   1.001e-07    -6.999    -7.000         0
   H+                     1.000e-07   1.000e-07    -7.000    -7.000         0
   H2O                    5.551e+01   1.000e+00     1.744         0         0
A                4.873e-09
   A                      4.873e-09   4.873e-09    -8.312    -8.312         0
H(0)             0.000e+00
   H2                     0.000e+00   0.000e+00   -41.753   -41.753         0
O(0)             2.676e-09
   O2                     1.338e-09   1.338e-09    -8.874    -8.874         0

------------------------------Saturation indices-------------------------------

	Phase               SI log IAP  log KT

	H2(g)           -38.60  -41.75   -3.15  H2
	H2O(g)           -1.51       0    1.51  H2O
	O2(g)            -5.91   -8.87   -2.96  O2

Time 120. Cell 59: x=          0.116	y=              0	z=              0
Using solution 59.
Using surface 59.
Using kinetics 59.

Kinetics.

	Time:      120 seconds
	Time step: 0.4 seconds

	Rate name       Delta Moles Total Moles   Reactant        Coefficient

	A_decay           2.133e-11   2.506e-10   A                         1

------------------------------Surface composition------------------------------

Surf          
	  0.000e+00  Surface charge, eq
Surf          
	  1.000e+10  moles
	                                   Mole                     Log
	Species               Moles    Fraction    Molality    Molality

	Surf              1.000e+10       1.000   1.000e+10      10.000
	SurfA             2.656e-09           0   2.656e-09      -8.576

-----------------------------Solution composition------------------------------

	Elements           Molality       Moles

	A                 2.656e-09   2.656e-09

----------------------------Description of solution----------------------------

                                       pH  =   7.000      Charge balance
                                       pe  =  12.306      Adjusted to redox equilibrium
                        Activity of water  =   1.000
                           Ionic strength  =   1.001e-07
                       Mass of water (kg)  =   1.000e+00
                 Total alkalinity (eq/kg)  =   1.072e-10
                    Total carbon (mol/kg)  =   0.000e+00
                       Total CO2 (mol/kg)  =   0.000e+00
                      Temperature (deg C)  =  25.000
                  Electrical balance (eq)  =  -1.072e-10
 Percent error, 100*(Cat-|An|)/(Cat+|An|)  =  -0.05
                               Iterations  =   5
                                  Total H  = 1.110124e+02
                                  Total O  = 5.550622e+01

----------------------------Distribution of species----------------------------

                                                   Log       Log         Log 
   Species                 Molality    Activity  Molality  Activity     Gamma

   OH-                    1.001e-07   1.001e-07    -6.999    -7.000         0
   H+                     1.000e-07   1.000e-07    -7.000    -7.000         0
   H2O                    5.551e+01   1.000e+00     1.744         0         0
A                2.656e-09
   A                      2.656e-09   2.656e-09    -8.576    -8.576         0
H(0)             0.000e+00
   H2                     0.000e+00   0.000e+00   -41.761   -41.761         0
O(0)             2.774e-09
   O2                     1.387e-09   1.387e-09    -8.858    -8.858         0

------------------------------Saturation indices-------------------------------

	Phase               SI log IAP  log KT

	H2(g)           -38.61  -41.76   -3.15  H2
	H2O(g)           -1.51       0    1.51  H2O
	O2(g)            -5.90   -8.86   -2.96  O2

Time 120. Cell 60: x=          0.118	y=              0	z=              0
Using solution 60.
Using surface 60.
Using kinetics 60.

Kinetics.

	Time:      120 seconds
	Time step: 0.4 seconds

	Rate name       Delta Moles Total Moles   Reactant        Coefficient

	A_decay           1.147e-11   1.311e-10   A                         1

------------------------------Surface composition------------------------------

Surf          
	  0.000e+00  Surface charge, eq
Surf          
	  1.000e+10  moles
	                                   Mole                     Log
	Species               Moles    Fraction    Molality    Molality

	Surf              1.000e+10       1.000   1.000e+10      10.000
	SurfA             1.429e-09           0   1.429e-09      -8.845

-----------------------------Solution composition------------------------------

	Elements           Molality       Moles

	A                 1.429e-09   1.429e-09

----------------------------Description of solution----------------------------

                                       pH  =   7.000      Charge balance
                                       pe  =  12.309      Adjusted to redox equilibrium
                        Activity of water  =   1.000
                           Ionic strength  =   1.001e-07
                       Mass of water (kg)  =   1.000e+00
                 Total alkalinity (eq/kg)  =   1.073e-10
                    Total carbon (mol/kg)  =   0.000e+00
                       Total CO2 (mol/kg)  =   0.000e+00
                      Temperature (deg C)  =  25.000
                  Electrical balance (eq)  =  -1.073e-10
 Percent error, 100*(Cat-|An|)/(Cat+|An|)  =  -0.05
                               Iterations  =   5
                                  Total H  = 1.110124e+02
                                  Total O  = 5.550622e+01

----------------------------Distribution of species----------------------------

                                                   Log       Log         Log 
   Species                 Molality    Activity  Molality  Activity     Gamma

   OH-                    1.001e-07   1.001e-07    -6.999    -7.000         0
   H+                     1.000e-07   1.000e-07    -7.000    -7.000         0
   H2O                    5.551e+01   1.000e+00     1.744         0         0
A                1.429e-09
   A                      1.429e-09   1.429e-09    -8.845    -8.845         0
H(0)             0.000e+00
   H2                     0.000e+00   0.000e+00   -41.768   -41.768         0
O(0)             2.870e-09
   O2                     1.435e-09   1.435e-09    -8.843    -8.843         0

------------------------------Saturation indices-------------------------------

	Phase               SI log IAP  log KT

	H2(g)           -38.62  -41.77   -3.15  H2
	H2O(g)           -1.51       0    1.51  H2O
	O2(g)            -5.88   -8.84   -2.96  O2

Time 120. Cell 61: x=           0.12	y=              0	z=              0
Using solution 61.
Using surface 61.
Using kinetics 61.

Kinetics.

	Time:      120 seconds
	Time step: 0.4 seconds

	Rate name       Delta Moles Total Moles   Reactant        Coefficient

	A_decay           7.982e-12   8.959e-11   A                         1

------------------------------Surface composition------------------------------

Surf          
	  0.000e+00  Surface charge, eq
Surf          
	  1.000e+10  moles
	                                   Mole                     Log
	Species               Moles    Fraction    Molality    Molality

	Surf              1.000e+10       1.000   1.000e+10      10.000
	SurfA             9.938e-10           0   9.938e-10      -9.003

-----------------------------Solution composition------------------------------

	Elements           Molality       Moles

	A                 9.938e-10   9.938e-10

----------------------------Description of solution----------------------------

                                       pH  =   7.000      Charge balance
                                       pe  =  12.311      Adjusted to redox equilibrium
                        Activity of water  =   1.000
                           Ionic strength  =   1.001e-07
                       Mass of water (kg)  =   1.000e+00
                 Total alkalinity (eq/kg)  =   1.073e-10
                    Total carbon (mol/kg)  =   0.000e+00
                       Total CO2 (mol/kg)  =   0.000e+00
                      Temperature (deg C)  =  25.000
                  Electrical balance (eq)  =  -1.073e-10
 Percent error, 100*(Cat-|An|)/(Cat+|An|)  =  -0.05
                               Iterations  =   5
                                  Total H  = 1.110124e+02
                                  Total O  = 5.550622e+01

----------------------------Distribution of species----------------------------

                                                   Log       Log         Log 
   Species                 Molality    Activity  Molality  Activity     Gamma

   OH-                    1.001e-07   1.001e-07    -6.999    -7.000         0
   H+                     1.000e-07   1.000e-07    -7.000    -7.000         0
   H2O                    5.551e+01   1.000e+00     1.744         0         0
A                9.938e-10
   A                      9.938e-10   9.938e-10    -9.003    -9.003         0
H(0)             0.000e+00
   H2                     0.000e+00   0.000e+00   -41.772   -41.772         0
O(0)             2.917e-09
   O2                     1.459e-09   1.459e-09    -8.836    -8.836         0

------------------------------Saturation indices-------------------------------

	Phase               SI log IAP  log KT

	H2(g)           -38.62  -41.77   -3.15  H2
	H2O(g)           -1.51       0    1.51  H2O
	O2(g)            -5.88   -8.84   -2.96  O2

