------------------
Reading data base.
------------------

	SOLUTION_MASTER_SPECIES
	SOLUTION_SPECIES
	PHASES
	EXCHANGE_MASTER_SPECIES
	EXCHANGE_SPECIES
	SURFACE_MASTER_SPECIES
	SURFACE_SPECIES
	RATES
	END
------------------------------------
Reading input data for simulation 1.
------------------------------------

	SOLUTION 1 
		 ph 7 charge
	SOLUTION 2
		 ph 7 
		 units mol/kgw
		 Na  10 charge
		 Cl  10
	PRINT
	warning 10
	reset false
List of Components:
	1	H
	2	O
	3	Cl
	4	Na
	5	Charge
List of master species:
	1	Cl
	2	Na
