Output file:    ex4.O.chem
Chemistry file: ex4.chem.dat
Database file:  phast.dat

------------------
Reading data base.
------------------

	SOLUTION_MASTER_SPECIES
	SOLUTION_SPECIES
	PHASES
	EXCHANGE_MASTER_SPECIES
	EXCHANGE_SPECIES
	SURFACE_MASTER_SPECIES
	SURFACE_SPECIES
	RATES
	END
------------------------------------
Reading input data for simulation 1.
------------------------------------

	SURFACE_MASTER_SPECIES
	        Surf    SurfOH
	SURFACE_SPECIES
	        SurfOH = SurfOH
	                log_k   0.0
	        SurfOH  + H+ = SurfOH2+
	                log_k   7.29
	        SurfOH = SurfO- + H+
	                log_k   -8.93
	        SurfOH + AsO4-3 + 3H+ = SurfH2AsO4 + H2O
	                log_k   29.31
	        SurfOH + AsO4-3 + 2H+ = SurfHAsO4- + H2O
	                log_k   23.51
	        SurfOH + AsO4-3 = SurfOHAsO4-3
	                log_k   10.58
	SOLUTION_MASTER_SPECIES
	        As       H3AsO4        -1.0     74.9216         74.9216
	SOLUTION_SPECIES
		H3AsO4 = H2AsO4- + H+
		log_k	-2.3
		delta_h	-7.066	kJ
		H3AsO4 = HAsO4-2 + 2H+
		log_k	-9.46
		delta_h	-3.846	kJ
		H3AsO4 = AsO4-3 + 3H+
		log_k	-21.11
		delta_h	14.354	kJ
	        H3AsO4 = H2AsO4- + H+ 
	        log_k           -2.243
	        delta_h -1.69 kcal
	        H3AsO4 = HAsO4-2 + 2H+ 
	        log_k           -9.001
	        delta_h -0.92 kcal
	        H3AsO4 = AsO4-3 + 3H+
	        log_k           -20.597
	        delta_h 3.43 kcal
	        H3AsO4 = H3AsO4
	        log_k           0.0
	        H3AsO4 = AsO4-3 + 3H+
	        log_k   -20.7
	        H+ + AsO4-3 = HAsO4-2
	        log_k   11.50
	        2H+ + AsO4-3 = H2AsO4-
	        log_k           18.46
	SOLUTION 1 20 x precipitation
	        pH      4.6
	        pe      4.0     O2(g)   -0.7
	        temp    25.
	        units   mmol/kgw
	        Ca      .191625
	        Mg      .035797
	        Na      .122668
	        Cl      .133704
	        C       .01096
	        S       .235153         charge
	END
-------------------------------------------
Beginning of initial solution calculations.
-------------------------------------------

Initial solution 1.	20 x precipitation

-----------------------------Solution composition------------------------------

	Elements           Molality       Moles

	C                 1.096e-05   1.096e-05
	Ca                1.916e-04   1.916e-04
	Cl                1.337e-04   1.337e-04
	Mg                3.580e-05   3.580e-05
	Na                1.227e-04   1.227e-04
	S                 2.351e-04   2.351e-04  Charge balance

----------------------------Description of solution----------------------------

                                       pH  =   4.600    
                                       pe  =  16.005      Equilibrium with O2(g)
                        Activity of water  =   1.000
                           Ionic strength  =   1.035e-03
                       Mass of water (kg)  =   1.000e+00
                 Total alkalinity (eq/kg)  =  -2.630e-05
                       Total CO2 (mol/kg)  =   1.096e-05
                      Temperature (deg C)  =  25.000
                  Electrical balance (eq)  =   7.111e-16
 Percent error, 100*(Cat-|An|)/(Cat+|An|)  =      0
                               Iterations  =   9
                                  Total H  = 1.110125e+02
                                  Total O  = 5.550762e+01

----------------------------Distribution of species----------------------------

                                                   Log       Log         Log 
   Species                 Molality    Activity  Molality  Activity     Gamma

   H+                     2.600e-05   2.512e-05    -4.585    -4.600    -0.015
   OH-                    4.133e-10   3.985e-10    -9.384    -9.400    -0.016
   H2O                    5.551e+01   1.000e+00     1.744         0         0
C(-4)            0.000e+00
   CH4                    0.000e+00   0.000e+00  -145.418  -145.418         0
C(4)             1.096e-05
   CO2                    1.076e-05   1.076e-05    -4.968    -4.968         0
   HCO3-                  1.975e-07   1.906e-07    -6.704    -6.720    -0.015
   CaHCO3+                4.048e-10   3.907e-10    -9.393    -9.408    -0.015
   MgHCO3+                6.905e-11   6.660e-11   -10.161   -10.177    -0.016
   NaHCO3                 1.267e-11   1.267e-11   -10.897   -10.897         0
   CO3-2                  4.105e-13   3.559e-13   -12.387   -12.449    -0.062
   CaCO3                  9.601e-14   9.603e-14   -13.018   -13.018         0
   MgCO3                  1.014e-14   1.014e-14   -13.994   -13.994         0
   NaCO3-                 8.122e-16   7.833e-16   -15.090   -15.106    -0.016
Ca               1.916e-04
   Ca+2                   1.853e-04   1.606e-04    -3.732    -3.794    -0.062
   CaSO4                  6.296e-06   6.297e-06    -5.201    -5.201         0
   CaHSO4+                9.608e-10   9.267e-10    -9.017    -9.033    -0.016
   CaHCO3+                4.048e-10   3.907e-10    -9.393    -9.408    -0.015
   CaOH+                  1.100e-12   1.061e-12   -11.958   -11.974    -0.016
   CaCO3                  9.601e-14   9.603e-14   -13.018   -13.018         0
Cl               1.337e-04
   Cl-                    1.337e-04   1.289e-04    -3.874    -3.890    -0.016
H(0)             0.000e+00
   H2                     0.000e+00   0.000e+00   -44.360   -44.360         0
Mg               3.580e-05
   Mg+2                   3.442e-05   2.986e-05    -4.463    -4.525    -0.062
   MgSO4                  1.375e-06   1.375e-06    -5.862    -5.862         0
   MgHCO3+                6.905e-11   6.660e-11   -10.161   -10.177    -0.016
   MgOH+                  4.475e-12   4.316e-12   -11.349   -11.365    -0.016
   MgCO3                  1.014e-14   1.014e-14   -13.994   -13.994         0
Na               1.227e-04
   Na+                    1.225e-04   1.182e-04    -3.912    -3.927    -0.016
   NaSO4-                 1.207e-07   1.164e-07    -6.918    -6.934    -0.016
   NaHCO3                 1.267e-11   1.267e-11   -10.897   -10.897         0
   NaOH                   3.109e-14   3.109e-14   -13.507   -13.507         0
   NaCO3-                 8.122e-16   7.833e-16   -15.090   -15.106    -0.016
O(0)             4.374e-04
   O2                     2.187e-04   2.188e-04    -3.660    -3.660         0
S(-2)            0.000e+00
   H2S                    0.000e+00   0.000e+00  -137.155  -137.155         0
   HS-                    0.000e+00   0.000e+00  -139.481  -139.497    -0.016
   S-2                    0.000e+00   0.000e+00  -147.752  -147.815    -0.062
S(6)             2.351e-04
   SO4-2                  2.268e-04   1.965e-04    -3.644    -3.707    -0.062
   CaSO4                  6.296e-06   6.297e-06    -5.201    -5.201         0
   MgSO4                  1.375e-06   1.375e-06    -5.862    -5.862         0
   HSO4-                  4.975e-07   4.798e-07    -6.303    -6.319    -0.016
   NaSO4-                 1.207e-07   1.164e-07    -6.918    -6.934    -0.016
   CaHSO4+                9.608e-10   9.267e-10    -9.017    -9.033    -0.016

------------------------------Saturation indices-------------------------------

	Phase               SI log IAP  log KT

	Anhydrite        -3.14   -7.50   -4.36  CaSO4
	Aragonite        -7.91  -16.24   -8.34  CaCO3
	Calcite          -7.76  -16.24   -8.48  CaCO3
	CH4(g)         -142.56 -145.42   -2.86  CH4
	CO2(g)           -3.50   -4.97   -1.47  CO2
	Dolomite        -16.13  -33.22  -17.09  CaMg(CO3)2
	Gypsum           -2.92   -7.50   -4.58  CaSO4:2H2O
	H2(g)           -41.21  -44.36   -3.15  H2
	H2O(g)           -1.51       0    1.51  H2O
	H2S(g)         -136.16 -137.16   -1.00  H2S
	Halite           -9.40   -7.82    1.58  NaCl
	O2(g)            -0.70   -3.66   -2.96  O2
	Sulfur         -100.83  -95.95    4.88  S

------------------
End of simulation.
------------------

------------------------------------
Reading input data for simulation 2.
------------------------------------

	USE solution 1
	EQUILIBRIUM_PHASES 1
	        Dolomite        0.0     1.6
	        Calcite         0.0     0.1
	        CO2(g)          -1.5    100.
	SAVE solution 1
	END
-----------------------------------------
Beginning of batch-reaction calculations.
-----------------------------------------

Reaction step 1.

-------------------------------Phase assemblage--------------------------------

                                                      Moles in assemblage
Phase                  SI log IAP  log KT      Initial       Final       Delta

Calcite                 0   -8.48   -8.48    1.000e-01   9.966e-02  -3.441e-04
CO2(g)              -1.50   -2.97   -1.47    1.000e+02   1.000e+02  -4.066e-03
Dolomite                0  -17.09  -17.09    1.600e+00   1.599e+00  -1.349e-03

-----------------------------Solution composition------------------------------

	Elements           Molality       Moles

	C                 7.119e-03   7.119e-03
	Ca                1.885e-03   1.884e-03
	Cl                1.337e-04   1.337e-04
	Mg                1.385e-03   1.385e-03
	Na                1.227e-04   1.227e-04
	S                 2.351e-04   2.351e-04

----------------------------Description of solution----------------------------

                                       pH  =   7.047      Charge balance
                                       pe  =  13.558      Adjusted to redox equilibrium
                        Activity of water  =   1.000
                           Ionic strength  =   9.629e-03
                       Mass of water (kg)  =   9.999e-01
                 Total alkalinity (eq/kg)  =   6.057e-03
                       Total CO2 (mol/kg)  =   7.119e-03
                      Temperature (deg C)  =  25.000
                  Electrical balance (eq)  =   2.136e-15
 Percent error, 100*(Cat-|An|)/(Cat+|An|)  =      0
                               Iterations  =   9
                                  Total H  = 1.110125e+02
                                  Total O  = 5.552487e+01

----------------------------Distribution of species----------------------------

                                                   Log       Log         Log 
   Species                 Molality    Activity  Molality  Activity     Gamma

   OH-                    1.236e-07   1.115e-07    -6.908    -6.953    -0.045
   H+                     9.814e-08   8.977e-08    -7.008    -7.047    -0.039
   H2O                    5.551e+01   9.998e-01     1.744         0         0
C(-4)            0.000e+00
   CH4                    0.000e+00   0.000e+00  -143.421  -143.420     0.001
C(4)             7.119e-03
   HCO3-                  5.883e-03   5.333e-03    -2.230    -2.273    -0.043
   CO2                    1.074e-03   1.077e-03    -2.969    -2.968     0.001
   CaHCO3+                8.923e-05   8.090e-05    -4.049    -4.092    -0.043
   MgHCO3+                6.082e-05   5.496e-05    -4.216    -4.260    -0.044
   CaCO3                  5.553e-06   5.565e-06    -5.256    -5.255     0.001
   CO3-2                  4.124e-06   2.786e-06    -5.385    -5.555    -0.170
   MgCO3                  2.336e-06   2.341e-06    -5.631    -5.631     0.001
   NaHCO3                 3.310e-07   3.317e-07    -6.480    -6.479     0.001
   NaCO3-                 6.350e-09   5.738e-09    -8.197    -8.241    -0.044
Ca               1.885e-03
   Ca+2                   1.761e-03   1.189e-03    -2.754    -2.925    -0.171
   CaHCO3+                8.923e-05   8.090e-05    -4.049    -4.092    -0.043
   CaSO4                  2.881e-05   2.888e-05    -4.540    -4.539     0.001
   CaCO3                  5.553e-06   5.565e-06    -5.256    -5.255     0.001
   CaOH+                  2.432e-09   2.198e-09    -8.614    -8.658    -0.044
   CaHSO4+                1.681e-11   1.519e-11   -10.775   -10.819    -0.044
Cl               1.337e-04
   Cl-                    1.337e-04   1.206e-04    -3.874    -3.919    -0.045
H(0)             0.000e+00
   H2                     0.000e+00   0.000e+00   -44.361   -44.361     0.001
Mg               1.385e-03
   Mg+2                   1.296e-03   8.807e-04    -2.887    -3.055    -0.168
   MgHCO3+                6.082e-05   5.496e-05    -4.216    -4.260    -0.044
   MgSO4                  2.507e-05   2.513e-05    -4.601    -4.600     0.001
   MgCO3                  2.336e-06   2.341e-06    -5.631    -5.631     0.001
   MgOH+                  3.941e-08   3.561e-08    -7.404    -7.448    -0.044
Na               1.227e-04
   Na+                    1.223e-04   1.106e-04    -3.913    -3.956    -0.044
   NaHCO3                 3.310e-07   3.317e-07    -6.480    -6.479     0.001
   NaSO4-                 7.467e-08   6.747e-08    -7.127    -7.171    -0.044
   NaCO3-                 6.350e-09   5.738e-09    -8.197    -8.241    -0.044
   NaOH                   8.120e-12   8.138e-12   -11.090   -11.089     0.001
O(0)             4.375e-04
   O2                     2.187e-04   2.192e-04    -3.660    -3.659     0.001
S(-2)            0.000e+00
   HS-                    0.000e+00   0.000e+00  -142.108  -142.153    -0.045
   H2S                    0.000e+00   0.000e+00  -142.259  -142.258     0.001
   S-2                    0.000e+00   0.000e+00  -147.852  -148.024    -0.172
S(6)             2.351e-04
   SO4-2                  1.811e-04   1.217e-04    -3.742    -3.915    -0.173
   CaSO4                  2.881e-05   2.888e-05    -4.540    -4.539     0.001
   MgSO4                  2.507e-05   2.513e-05    -4.601    -4.600     0.001
   NaSO4-                 7.467e-08   6.747e-08    -7.127    -7.171    -0.044
   HSO4-                  1.176e-09   1.062e-09    -8.930    -8.974    -0.044
   CaHSO4+                1.681e-11   1.519e-11   -10.775   -10.819    -0.044

------------------------------Saturation indices-------------------------------

	Phase               SI log IAP  log KT

	Anhydrite        -2.48   -6.84   -4.36  CaSO4
	Aragonite        -0.14   -8.48   -8.34  CaCO3
	Calcite              0   -8.48   -8.48  CaCO3
	CH4(g)         -140.56 -143.42   -2.86  CH4
	CO2(g)           -1.50   -2.97   -1.47  CO2
	Dolomite             0  -17.09  -17.09  CaMg(CO3)2
	Gypsum           -2.26   -6.84   -4.58  CaSO4:2H2O
	H2(g)           -41.21  -44.36   -3.15  H2
	H2O(g)           -1.51       0    1.51  H2O
	H2S(g)         -141.26 -142.26   -1.00  H2S
	Halite           -9.46   -7.87    1.58  NaCl
	O2(g)            -0.70   -3.66   -2.96  O2
	Sulfur         -105.93 -101.05    4.88  S

------------------
End of simulation.
------------------

------------------------------------
Reading input data for simulation 3.
------------------------------------

	SOLUTION 2 Brine
	        pH      5.713
	        pe      4.0     O2(g)   -0.7
	        temp    25.
	        units   mol/kgw
	        Ca      .4655
	        Mg      .1609
	        Na      5.402
	        Cl      6.642           charge
	        C       .00396
	        S       .004725
	        As      .01 umol/kgw
	END
-------------------------------------------
Beginning of initial solution calculations.
-------------------------------------------

Initial solution 2.	Brine

-----------------------------Solution composition------------------------------

	Elements           Molality       Moles

	As                1.000e-08   1.000e-08
	C                 3.960e-03   3.960e-03
	Ca                4.655e-01   4.655e-01
	Cl                6.642e+00   6.642e+00  Charge balance
	Mg                1.609e-01   1.609e-01
	Na                5.402e+00   5.402e+00
	S                 4.725e-03   4.725e-03

----------------------------Description of solution----------------------------

                                       pH  =   5.713    
                                       pe  =  14.945      Equilibrium with O2(g)
                        Activity of water  =   0.785
                           Ionic strength  =   7.266e+00
                       Mass of water (kg)  =   1.000e+00
                 Total alkalinity (eq/kg)  =   3.758e-03
                       Total CO2 (mol/kg)  =   3.960e-03
                      Temperature (deg C)  =  25.000
                  Electrical balance (eq)  =   1.027e-12
 Percent error, 100*(Cat-|An|)/(Cat+|An|)  =      0
                               Iterations  =  11
                                  Total H  = 1.110162e+02
                                  Total O  = 5.553688e+01

----------------------------Distribution of species----------------------------

                                                   Log       Log         Log 
   Species                 Molality    Activity  Molality  Activity     Gamma

   H+                     2.755e-06   1.936e-06    -5.560    -5.713    -0.153
   OH-                    8.773e-09   4.056e-09    -8.057    -8.392    -0.335
   H2O                    5.551e+01   7.846e-01     1.744    -0.105         0
As               1.000e-08
   H2AsO4-                9.993e-09   5.476e-08    -8.000    -7.262     0.739
   H3AsO4                 3.458e-12   1.843e-11   -11.461   -10.735     0.727
   HAsO4-2                3.440e-12   3.100e-09   -11.463    -8.509     2.955
   AsO4-3                 1.137e-21   5.063e-15   -20.944   -14.296     6.649
C(-4)            0.000e+00
   CH4                    0.000e+00   0.000e+00  -144.357  -143.631     0.727
C(4)             3.960e-03
   CaHCO3+                3.015e-03   1.745e-03    -2.521    -2.758    -0.238
   HCO3-                  3.336e-04   1.931e-04    -3.477    -3.714    -0.238
   MgHCO3+                2.161e-04   1.184e-03    -3.665    -2.927     0.739
   CO2                    2.010e-04   1.071e-03    -3.697    -2.970     0.727
   NaHCO3                 1.924e-04   1.025e-03    -3.716    -2.989     0.727
   CaCO3                  1.044e-06   5.564e-06    -5.981    -5.255     0.727
   MgCO3                  4.389e-07   2.339e-06    -6.358    -5.631     0.727
   NaCO3-                 1.500e-07   8.221e-07    -6.824    -6.085     0.739
   CO3-2                  4.170e-08   4.676e-09    -7.380    -8.330    -0.950
Ca               4.655e-01
   Ca+2                   4.609e-01   7.084e-01    -0.336    -0.150     0.187
   CaHCO3+                3.015e-03   1.745e-03    -2.521    -2.758    -0.238
   CaSO4                  1.600e-03   8.528e-03    -2.796    -2.069     0.727
   CaCO3                  1.044e-06   5.564e-06    -5.981    -5.255     0.727
   CaHSO4+                1.766e-08   9.674e-08    -7.753    -7.014     0.739
   CaOH+                  8.693e-09   4.763e-08    -8.061    -7.322     0.739
Cl               6.642e+00
   Cl-                    6.642e+00   3.946e+00     0.822     0.596    -0.226
H(0)             0.000e+00
   H2                     0.000e+00   0.000e+00   -45.192   -44.465     0.727
Mg               1.609e-01
   Mg+2                   1.593e-01   5.242e-01    -0.798    -0.280     0.517
   MgSO4                  1.391e-03   7.415e-03    -2.857    -2.130     0.727
   MgHCO3+                2.161e-04   1.184e-03    -3.665    -2.927     0.739
   MgCO3                  4.389e-07   2.339e-06    -6.358    -5.631     0.727
   MgOH+                  1.407e-07   7.712e-07    -6.852    -6.113     0.739
Na               5.402e+00
   Na+                    5.401e+00   9.442e+00     0.732     0.975     0.243
   NaSO4-                 5.211e-04   2.855e-03    -3.283    -2.544     0.739
   NaHCO3                 1.924e-04   1.025e-03    -3.716    -2.989     0.727
   NaCO3-                 1.500e-07   8.221e-07    -6.824    -6.085     0.739
   NaOH                   4.743e-09   2.528e-08    -8.324    -7.597     0.727
O(0)             8.211e-05
   O2                     4.106e-05   2.188e-04    -4.387    -3.660     0.727
S(-2)            0.000e+00
   H2S                    0.000e+00   0.000e+00  -140.620  -139.894     0.727
   HS-                    0.000e+00   0.000e+00  -140.787  -141.122    -0.335
   S-2                    0.000e+00   0.000e+00  -147.315  -148.327    -1.012
S(6)             4.725e-03
   CaSO4                  1.600e-03   8.528e-03    -2.796    -2.069     0.727
   MgSO4                  1.391e-03   7.415e-03    -2.857    -2.130     0.727
   SO4-2                  1.212e-03   6.034e-05    -2.916    -4.219    -1.303
   NaSO4-                 5.211e-04   2.855e-03    -3.283    -2.544     0.739
   CaHSO4+                1.766e-08   9.674e-08    -7.753    -7.014     0.739
   HSO4-                  2.073e-09   1.136e-08    -8.683    -7.945     0.739

------------------------------Saturation indices-------------------------------

	Phase               SI log IAP  log KT

	Anhydrite        -0.01   -4.37   -4.36  CaSO4
	Aragonite        -0.14   -8.48   -8.34  CaCO3
	Calcite              0   -8.48   -8.48  CaCO3
	CH4(g)         -140.77 -143.63   -2.86  CH4
	CO2(g)           -1.50   -2.97   -1.47  CO2
	Dolomite             0  -17.09  -17.09  CaMg(CO3)2
	Gypsum               0   -4.58   -4.58  CaSO4:2H2O
	H2(g)           -41.32  -44.47   -3.15  H2
	H2O(g)           -1.62   -0.11    1.51  H2O
	H2S(g)         -138.90 -139.89   -1.00  H2S
	Halite           -0.01    1.57    1.58  NaCl
	O2(g)            -0.70   -3.66   -2.96  O2
	Sulfur         -103.46  -98.58    4.88  S

------------------
End of simulation.
------------------

------------------------------------
Reading input data for simulation 4.
------------------------------------

	USE solution 2
	EQUILIBRIUM_PHASES 2
	        Dolomite        0.0     1.6
	        Calcite         0.0     0.1
	SAVE solution 2
	END
-----------------------------------------
Beginning of batch-reaction calculations.
-----------------------------------------

Reaction step 1.

-------------------------------Phase assemblage--------------------------------

                                                      Moles in assemblage
Phase                  SI log IAP  log KT      Initial       Final       Delta

Calcite                 0   -8.48   -8.48    1.000e-01   1.002e-01   2.185e-04
Dolomite                0  -17.09  -17.09    1.600e+00   1.600e+00  -1.093e-04

-----------------------------Solution composition------------------------------

	Elements           Molality       Moles

	As                1.000e-08   1.000e-08
	C                 3.960e-03   3.960e-03
	Ca                4.654e-01   4.654e-01
	Cl                6.642e+00   6.642e+00
	Mg                1.610e-01   1.610e-01
	Na                5.402e+00   5.402e+00
	S                 4.725e-03   4.725e-03

----------------------------Description of solution----------------------------

                                       pH  =   5.713      Charge balance
                                       pe  =  14.945      Adjusted to redox equilibrium
                        Activity of water  =   0.785
                           Ionic strength  =   7.266e+00
                       Mass of water (kg)  =   1.000e+00
                 Total alkalinity (eq/kg)  =   3.758e-03
                       Total CO2 (mol/kg)  =   3.960e-03
                      Temperature (deg C)  =  25.000
                  Electrical balance (eq)  =   1.033e-12
 Percent error, 100*(Cat-|An|)/(Cat+|An|)  =      0
                               Iterations  =   2
                                  Total H  = 1.110162e+02
                                  Total O  = 5.553688e+01

----------------------------Distribution of species----------------------------

                                                   Log       Log         Log 
   Species                 Molality    Activity  Molality  Activity     Gamma

   H+                     2.754e-06   1.936e-06    -5.560    -5.713    -0.153
   OH-                    8.776e-09   4.057e-09    -8.057    -8.392    -0.335
   H2O                    5.551e+01   7.846e-01     1.744    -0.105         0
As               1.000e-08
   H2AsO4-                9.993e-09   5.476e-08    -8.000    -7.262     0.739
   H3AsO4                 3.457e-12   1.842e-11   -11.461   -10.735     0.727
   HAsO4-2                3.441e-12   3.101e-09   -11.463    -8.508     2.955
   AsO4-3                 1.138e-21   5.066e-15   -20.944   -14.295     6.649
C(-4)            0.000e+00
   CH4                    0.000e+00   0.000e+00  -144.357  -143.631     0.727
C(4)             3.960e-03
   CaHCO3+                3.015e-03   1.745e-03    -2.521    -2.758    -0.238
   HCO3-                  3.337e-04   1.931e-04    -3.477    -3.714    -0.238
   MgHCO3+                2.163e-04   1.185e-03    -3.665    -2.926     0.739
   CO2                    2.010e-04   1.071e-03    -3.697    -2.970     0.727
   NaHCO3                 1.924e-04   1.025e-03    -3.716    -2.989     0.727
   CaCO3                  1.044e-06   5.565e-06    -5.981    -5.255     0.727
   MgCO3                  4.394e-07   2.341e-06    -6.357    -5.631     0.727
   NaCO3-                 1.501e-07   8.224e-07    -6.824    -6.085     0.739
   CO3-2                  4.171e-08   4.678e-09    -7.380    -8.330    -0.950
Ca               4.654e-01
   Ca+2                   4.608e-01   7.082e-01    -0.337    -0.150     0.187
   CaHCO3+                3.015e-03   1.745e-03    -2.521    -2.758    -0.238
   CaSO4                  1.600e-03   8.525e-03    -2.796    -2.069     0.727
   CaCO3                  1.044e-06   5.565e-06    -5.981    -5.255     0.727
   CaHSO4+                1.764e-08   9.668e-08    -7.753    -7.015     0.739
   CaOH+                  8.693e-09   4.763e-08    -8.061    -7.322     0.739
Cl               6.642e+00
   Cl-                    6.642e+00   3.946e+00     0.822     0.596    -0.226
H(0)             0.000e+00
   H2                     0.000e+00   0.000e+00   -45.192   -44.465     0.727
Mg               1.610e-01
   Mg+2                   1.594e-01   5.246e-01    -0.798    -0.280     0.517
   MgSO4                  1.392e-03   7.419e-03    -2.856    -2.130     0.727
   MgHCO3+                2.163e-04   1.185e-03    -3.665    -2.926     0.739
   MgCO3                  4.394e-07   2.341e-06    -6.357    -5.631     0.727
   MgOH+                  1.409e-07   7.719e-07    -6.851    -6.112     0.739
Na               5.402e+00
   Na+                    5.401e+00   9.442e+00     0.732     0.975     0.243
   NaSO4-                 5.210e-04   2.855e-03    -3.283    -2.544     0.739
   NaHCO3                 1.924e-04   1.025e-03    -3.716    -2.989     0.727
   NaCO3-                 1.501e-07   8.224e-07    -6.824    -6.085     0.739
   NaOH                   4.744e-09   2.528e-08    -8.324    -7.597     0.727
O(0)             8.211e-05
   O2                     4.106e-05   2.188e-04    -4.387    -3.660     0.727
S(-2)            0.000e+00
   H2S                    0.000e+00   0.000e+00  -140.621  -139.894     0.727
   HS-                    0.000e+00   0.000e+00  -140.788  -141.123    -0.335
   S-2                    0.000e+00   0.000e+00  -147.315  -148.327    -1.012
S(6)             4.725e-03
   CaSO4                  1.600e-03   8.525e-03    -2.796    -2.069     0.727
   MgSO4                  1.392e-03   7.419e-03    -2.856    -2.130     0.727
   SO4-2                  1.212e-03   6.033e-05    -2.917    -4.219    -1.303
   NaSO4-                 5.210e-04   2.855e-03    -3.283    -2.544     0.739
   CaHSO4+                1.764e-08   9.668e-08    -7.753    -7.015     0.739
   HSO4-                  2.072e-09   1.136e-08    -8.684    -7.945     0.739

------------------------------Saturation indices-------------------------------

	Phase               SI log IAP  log KT

	Anhydrite        -0.01   -4.37   -4.36  CaSO4
	Aragonite        -0.14   -8.48   -8.34  CaCO3
	Calcite              0   -8.48   -8.48  CaCO3
	CH4(g)         -140.77 -143.63   -2.86  CH4
	CO2(g)           -1.50   -2.97   -1.47  CO2
	Dolomite             0  -17.09  -17.09  CaMg(CO3)2
	Gypsum               0   -4.58   -4.58  CaSO4:2H2O
	H2(g)           -41.32  -44.47   -3.15  H2
	H2O(g)           -1.62   -0.11    1.51  H2O
	H2S(g)         -138.90 -139.89   -1.00  H2S
	Halite           -0.01    1.57    1.58  NaCl
	O2(g)            -0.70   -3.66   -2.96  O2
	Sulfur         -103.46  -98.58    4.88  S

------------------
End of simulation.
------------------

------------------------------------
Reading input data for simulation 5.
------------------------------------

	EXCHANGE 2
	        equilibrate with solution 2
	        X       0.5
	SURFACE 2
	        equilibrate solution 2
	        SurfOH          0.14     600.    30.
	END
-------------------------------------------------------
Beginning of initial exchange-composition calculations.
-------------------------------------------------------

Exchange 2.	

X                5.000e-01 mol

	                               Equiv-    Equivalent      Log 
	Species             Moles      alents      Fraction     Gamma

	NaX               4.507e-01   4.507e-01   9.014e-01     0.243
	CaX2              2.024e-02   4.048e-02   8.096e-02     0.187
	MgX2              4.418e-03   8.836e-03   1.767e-02     0.517

------------------------------------------------------
Beginning of initial surface-composition calculations.
------------------------------------------------------

Surface 2.	

Surf          
	  8.470e-02  Surface charge, eq
	  4.541e-01  sigma, C/m**2
	  5.950e-02  psi, V
	 -2.316e+00  -F*psi/RT
	  9.866e-02  exp(-F*psi/RT)
	  6.000e+02  specific area, m**2/g
	  1.800e+04  m**2 for   3.000e+01 g


Surf          
	  1.400e-01  moles
	                                   Mole                     Log
	Species               Moles    Fraction    Molality    Molality

	SurfOH2+          1.039e-01       0.742   1.039e-01      -0.984
	SurfOH            2.789e-02       0.199   2.789e-02      -1.555
	SurfOHAsO4-3      5.593e-03       0.040   5.593e-03      -2.252
	SurfHAsO4-        2.213e-03       0.016   2.213e-03      -2.655
	SurfH2AsO4        2.668e-04       0.002   2.668e-04      -3.574
	SurfO-            1.715e-04       0.001   1.715e-04      -3.766

------------------
End of simulation.
------------------

------------------------------------
Reading input data for simulation 6.
------------------------------------

	SELECTED_OUTPUT
	        file ex4.dummy.sel
	        reset false
	        ph
	USER_PUNCH
	heading        Ca      Mg      Na      Cl      C(4)    SO4     As
	10 PUNCH TOT("Ca")*1e3*40.08
	20 PUNCH TOT("Mg")*1e3*24.312
	30 PUNCH TOT("Na")*1e3*23.
	40 PUNCH TOT("Cl")*1e3*35.45
	50 PUNCH TOT("C(4)")*1e3*61.   # as HCO3-
	60 PUNCH TOT("S(6)")*1e3*96.   # as SO4
	70 PUNCH TOT("As")*1e6*74.296  # ug/L
	END
------------------
End of simulation.
------------------

------------------------------------
Reading input data for simulation 7.
------------------------------------

List of Components:
	1	H
	2	O
	3	As
	4	C
	5	Ca
	6	Cl
	7	Mg
	8	Na
	9	S
	10	Charge
List of master species:
	1	As
	2	C(-4)
	3	C(4)
	4	Ca
	5	Cl
	6	Mg
	7	Na
	8	S(-2)
	9	S(6)
Time 100000. Cell 1: x=              0	y=              0	z=              0
Using solution 1.
Using exchange 1
Using surface 1.
Using pure phase assemblage 1.

-------------------------------Phase assemblage--------------------------------

                                                      Moles in assemblage
Phase                  SI log IAP  log KT      Initial       Final       Delta

Calcite                 0   -8.48   -8.48    1.181e-01   1.178e-01  -2.533e-04
Dolomite                0  -17.09  -17.09    1.569e+00   1.568e+00  -3.838e-04

------------------------------Surface composition------------------------------

Surf          
	  1.104e-02  Surface charge, eq
	  5.920e-02  sigma, C/m**2
	  5.522e-02  psi, V
	 -2.149e+00  -F*psi/RT
	  1.166e-01  exp(-F*psi/RT)
	  6.000e+02  specific area, m**2/g
	  1.800e+04  m**2 for   3.000e+01 g


Surf          
	  1.400e-01  moles
	                                   Mole                     Log
	Species               Moles    Fraction    Molality    Molality

	SurfOH            8.783e-02       0.627   8.782e-02      -1.056
	SurfOH2+          3.964e-02       0.283   3.964e-02      -1.402
	SurfOHAsO4-3      8.036e-03       0.057   8.035e-03      -2.095
	SurfO-            4.457e-03       0.032   4.457e-03      -2.351
	SurfHAsO4-        3.684e-05           0   3.684e-05      -4.434
	SurfH2AsO4        5.381e-07           0   5.381e-07      -6.269

-----------------------------Exchange composition------------------------------

X                5.000e-01 mol

	                               Equiv-    Equivalent      Log 
	Species             Moles      alents      Fraction     Gamma

	NaX               3.064e-01   3.064e-01   6.128e-01    -0.120
	CaX2              6.710e-02   1.342e-01   2.684e-01    -0.459
	MgX2              2.971e-02   5.942e-02   1.188e-01    -0.436

-----------------------------Solution composition------------------------------

	Elements           Molality       Moles

	As                1.291e-09   1.291e-09
	C                 2.847e-02   2.848e-02
	Ca                2.853e-03   2.853e-03
	Cl                1.128e-01   1.128e-01
	Mg                1.998e-03   1.999e-03
	Na                1.525e-01   1.525e-01
	S                 3.112e-04   3.112e-04

----------------------------Description of solution----------------------------

                                       pH  =   6.702      Charge balance
                                       pe  =  13.906      Adjusted to redox equilibrium
                        Activity of water  =   0.995
                           Ionic strength  =   1.519e-01
                       Mass of water (kg)  =   1.000e+00
                 Total alkalinity (eq/kg)  =   2.177e-02
                       Total CO2 (mol/kg)  =   2.847e-02
                      Temperature (deg C)  =  25.000
                  Electrical balance (eq)  =   2.706e-02
 Percent error, 100*(Cat-|An|)/(Cat+|An|)  =   9.19
                               Iterations  =   4
                                  Total H  = 1.110450e+02
                                  Total O  = 5.559199e+01

----------------------------Distribution of species----------------------------

                                                   Log       Log         Log 
   Species                 Molality    Activity  Molality  Activity     Gamma

   H+                     2.456e-07   1.986e-07    -6.610    -6.702    -0.092
   OH-                    6.876e-08   5.015e-08    -7.163    -7.300    -0.137
   H2O                    5.551e+01   9.949e-01     1.744    -0.002         0
As               1.291e-09
   HAsO4-2                7.203e-10   2.393e-10    -9.143    -9.621    -0.478
   H2AsO4-                5.710e-10   4.336e-10    -9.243    -9.363    -0.120
   AsO4-3                 4.545e-14   3.811e-15   -13.342   -14.419    -1.077
   H3AsO4                 1.445e-14   1.496e-14   -13.840   -13.825     0.015
C(-4)            0.000e+00
   CH4                    0.000e+00   0.000e+00  -142.644  -142.629     0.015
C(4)             2.847e-02
   HCO3-                  2.035e-02   1.553e-02    -1.691    -1.809    -0.117
   CO2                    6.731e-03   6.970e-03    -2.172    -2.157     0.015
   NaHCO3                 9.693e-04   1.004e-03    -3.014    -2.998     0.015
   CaHCO3+                2.345e-04   1.790e-04    -3.630    -3.747    -0.117
   MgHCO3+                1.602e-04   1.216e-04    -3.795    -3.915    -0.120
   CO3-2                  1.081e-05   3.667e-06    -4.966    -5.436    -0.470
   NaCO3-                 1.034e-05   7.848e-06    -4.986    -5.105    -0.120
   CaCO3                  5.374e-06   5.565e-06    -5.270    -5.255     0.015
   MgCO3                  2.261e-06   2.341e-06    -5.646    -5.631     0.015
Ca               2.853e-03
   Ca+2                   2.600e-03   9.034e-04    -2.585    -3.044    -0.459
   CaHCO3+                2.345e-04   1.790e-04    -3.630    -3.747    -0.117
   CaSO4                  1.297e-05   1.343e-05    -4.887    -4.872     0.015
   CaCO3                  5.374e-06   5.565e-06    -5.270    -5.255     0.015
   CaOH+                  9.892e-10   7.510e-10    -9.005    -9.124    -0.120
   CaHSO4+                2.058e-11   1.563e-11   -10.686   -10.806    -0.120
Cl               1.128e-01
   Cl-                    1.128e-01   8.269e-02    -0.948    -1.083    -0.135
H(0)             0.000e+00
   H2                     0.000e+00   0.000e+00   -44.382   -44.367     0.015
Mg               1.998e-03
   Mg+2                   1.825e-03   6.692e-04    -2.739    -3.174    -0.436
   MgHCO3+                1.602e-04   1.216e-04    -3.795    -3.915    -0.120
   MgSO4                  1.129e-05   1.169e-05    -4.947    -4.932     0.015
   MgCO3                  2.261e-06   2.341e-06    -5.646    -5.631     0.015
   MgOH+                  1.603e-08   1.217e-08    -7.795    -7.915    -0.120
Na               1.525e-01
   Na+                    1.515e-01   1.149e-01    -0.820    -0.939    -0.120
   NaHCO3                 9.693e-04   1.004e-03    -3.014    -2.998     0.015
   NaSO4-                 5.654e-05   4.293e-05    -4.248    -4.367    -0.120
   NaCO3-                 1.034e-05   7.848e-06    -4.986    -5.105    -0.120
   NaOH                   3.674e-09   3.804e-09    -8.435    -8.420     0.015
O(0)             4.314e-04
   O2                     2.157e-04   2.234e-04    -3.666    -3.651     0.015
S(-2)            0.000e+00
   H2S                    0.000e+00   0.000e+00  -141.813  -141.798     0.015
   HS-                    0.000e+00   0.000e+00  -141.901  -142.038    -0.137
   S-2                    0.000e+00   0.000e+00  -147.770  -148.254    -0.484
S(6)             3.112e-04
   SO4-2                  2.304e-04   7.451e-05    -3.638    -4.128    -0.490
   NaSO4-                 5.654e-05   4.293e-05    -4.248    -4.367    -0.120
   CaSO4                  1.297e-05   1.343e-05    -4.887    -4.872     0.015
   MgSO4                  1.129e-05   1.169e-05    -4.947    -4.932     0.015
   HSO4-                  1.895e-09   1.439e-09    -8.722    -8.842    -0.120
   CaHSO4+                2.058e-11   1.563e-11   -10.686   -10.806    -0.120

------------------------------Saturation indices-------------------------------

	Phase               SI log IAP  log KT

	Anhydrite        -2.81   -7.17   -4.36  CaSO4
	Aragonite        -0.14   -8.48   -8.34  CaCO3
	Calcite              0   -8.48   -8.48  CaCO3
	CH4(g)         -139.77 -142.63   -2.86  CH4
	CO2(g)           -0.69   -2.16   -1.47  CO2
	Dolomite             0  -17.09  -17.09  CaMg(CO3)2
	Gypsum           -2.60   -7.18   -4.58  CaSO4:2H2O
	H2(g)           -41.22  -44.37   -3.15  H2
	H2O(g)           -1.51       0    1.51  H2O
	H2S(g)         -140.80 -141.80   -1.00  H2S
	Halite           -3.60   -2.02    1.58  NaCl
	O2(g)            -0.69   -3.65   -2.96  O2
	Sulfur         -105.46 -100.58    4.88  S

Time 100000. Cell 4: x=          18000	y=              0	z=              0
Using solution 4.
Using exchange 4
Using surface 4.
Using pure phase assemblage 4.

-------------------------------Phase assemblage--------------------------------

                                                      Moles in assemblage
Phase                  SI log IAP  log KT      Initial       Final       Delta

Calcite                 0   -8.48   -8.48    1.298e-01   1.297e-01  -1.088e-04
Dolomite                0  -17.09  -17.09    1.553e+00   1.553e+00  -3.506e-05

------------------------------Surface composition------------------------------

Surf          
	 -2.739e-03  Surface charge, eq
	 -1.468e-02  sigma, C/m**2
	 -5.220e-02  psi, V
	  2.032e+00  -F*psi/RT
	  7.627e+00  exp(-F*psi/RT)
	  6.000e+02  specific area, m**2/g
	  1.800e+04  m**2 for   3.000e+01 g


Surf          
	  1.400e-01  moles
	                                   Mole                     Log
	Species               Moles    Fraction    Molality    Molality

	SurfOH            9.585e-02       0.685   9.585e-02      -1.018
	SurfOH2+          2.876e-02       0.205   2.876e-02      -1.541
	SurfOHAsO4-3      8.054e-03       0.058   8.054e-03      -2.094
	SurfO-            7.319e-03       0.052   7.319e-03      -2.136
	SurfHAsO4-        1.624e-05           0   1.624e-05      -4.789
	SurfH2AsO4        1.576e-07           0   1.576e-07      -6.802

-----------------------------Exchange composition------------------------------

X                5.000e-01 mol

	                               Equiv-    Equivalent      Log 
	Species             Moles      alents      Fraction     Gamma

	NaX               2.329e-01   2.329e-01   4.658e-01    -0.046
	CaX2              9.121e-02   1.824e-01   3.648e-01    -0.180
	MgX2              4.233e-02   8.467e-02   1.693e-01    -0.177

-----------------------------Solution composition------------------------------

	Elements           Molality       Moles

	As                9.747e-07   9.746e-07
	C                 8.735e-03   8.735e-03
	Ca                3.673e-05   3.673e-05
	Cl                8.056e-04   8.056e-04
	Mg                2.527e-05   2.527e-05
	Na                1.044e-02   1.044e-02
	S                 2.355e-04   2.355e-04

----------------------------Description of solution----------------------------

                                       pH  =   8.695      Charge balance
                                       pe  =  11.910      Adjusted to redox equilibrium
                        Activity of water  =   1.000
                           Ionic strength  =   1.087e-02
                       Mass of water (kg)  =   1.000e+00
                 Total alkalinity (eq/kg)  =   9.014e-03
                       Total CO2 (mol/kg)  =   8.735e-03
                      Temperature (deg C)  =  25.000
                  Electrical balance (eq)  =   2.745e-04
 Percent error, 100*(Cat-|An|)/(Cat+|An|)  =   1.33
                               Iterations  =  10
                                  Total H  = 1.110187e+02
                                  Total O  = 5.553273e+01

----------------------------Distribution of species----------------------------

                                                   Log       Log         Log 
   Species                 Molality    Activity  Molality  Activity     Gamma

   OH-                    5.532e-06   4.960e-06    -5.257    -5.305    -0.047
   H+                     2.215e-09   2.018e-09    -8.655    -8.695    -0.041
   H2O                    5.551e+01   9.997e-01     1.744         0         0
As               9.747e-07
   HAsO4-2                9.593e-07   6.255e-07    -6.018    -6.204    -0.186
   H2AsO4-                1.281e-08   1.151e-08    -7.892    -7.939    -0.046
   AsO4-3                 2.566e-09   9.804e-10    -8.591    -9.009    -0.418
   H3AsO4                 4.026e-15   4.036e-15   -14.395   -14.394     0.001
C(-4)            0.000e+00
   CH4                    0.000e+00   0.000e+00  -144.919  -144.918     0.001
C(4)             8.735e-03
   HCO3-                  8.352e-03   7.533e-03    -2.078    -2.123    -0.045
   CO3-2                  2.646e-04   1.751e-04    -3.577    -3.757    -0.179
   NaHCO3                 3.939e-05   3.949e-05    -4.405    -4.403     0.001
   CO2                    3.410e-05   3.418e-05    -4.467    -4.466     0.001
   NaCO3-                 3.383e-05   3.040e-05    -4.471    -4.517    -0.046
   CaCO3                  5.551e-06   5.565e-06    -5.256    -5.255     0.001
   MgCO3                  2.336e-06   2.341e-06    -5.632    -5.631     0.001
   CaHCO3+                2.016e-06   1.818e-06    -5.696    -5.740    -0.045
   MgHCO3+                1.375e-06   1.235e-06    -5.862    -5.908    -0.046
Ca               3.673e-05
   Ca+2                   2.860e-05   1.892e-05    -4.544    -4.723    -0.180
   CaCO3                  5.551e-06   5.565e-06    -5.256    -5.255     0.001
   CaHCO3+                2.016e-06   1.818e-06    -5.696    -5.740    -0.045
   CaSO4                  5.617e-07   5.631e-07    -6.251    -6.249     0.001
   CaOH+                  1.731e-09   1.556e-09    -8.762    -8.808    -0.046
   CaHSO4+                7.406e-15   6.656e-15   -14.130   -14.177    -0.046
Cl               8.056e-04
   Cl-                    8.056e-04   7.226e-04    -3.094    -3.141    -0.047
H(0)             0.000e+00
   H2                     0.000e+00   0.000e+00   -44.362   -44.361     0.001
Mg               2.527e-05
   Mg+2                   2.104e-05   1.401e-05    -4.677    -4.853    -0.177
   MgCO3                  2.336e-06   2.341e-06    -5.632    -5.631     0.001
   MgHCO3+                1.375e-06   1.235e-06    -5.862    -5.908    -0.046
   MgSO4                  4.888e-07   4.900e-07    -6.311    -6.310     0.001
   MgOH+                  2.805e-08   2.521e-08    -7.552    -7.598    -0.046
Na               1.044e-02
   Na+                    1.036e-02   9.322e-03    -1.985    -2.030    -0.046
   NaHCO3                 3.939e-05   3.949e-05    -4.405    -4.403     0.001
   NaCO3-                 3.383e-05   3.040e-05    -4.471    -4.517    -0.046
   NaSO4-                 7.756e-06   6.970e-06    -5.110    -5.157    -0.046
   NaOH                   3.044e-08   3.052e-08    -7.517    -7.515     0.001
O(0)             4.374e-04
   O2                     2.187e-04   2.193e-04    -3.660    -3.659     0.001
S(-2)            0.000e+00
   HS-                    0.000e+00   0.000e+00  -143.666  -143.713    -0.047
   H2S                    0.000e+00   0.000e+00  -145.468  -145.467     0.001
   S-2                    0.000e+00   0.000e+00  -147.755  -147.936    -0.181
S(6)             2.355e-04
   SO4-2                  2.267e-04   1.492e-04    -3.645    -3.826    -0.182
   NaSO4-                 7.756e-06   6.970e-06    -5.110    -5.157    -0.046
   CaSO4                  5.617e-07   5.631e-07    -6.251    -6.249     0.001
   MgSO4                  4.888e-07   4.900e-07    -6.311    -6.310     0.001
   HSO4-                  3.256e-11   2.926e-11   -10.487   -10.534    -0.046
   CaHSO4+                7.406e-15   6.656e-15   -14.130   -14.177    -0.046

------------------------------Saturation indices-------------------------------

	Phase               SI log IAP  log KT

	Anhydrite        -4.19   -8.55   -4.36  CaSO4
	Aragonite        -0.14   -8.48   -8.34  CaCO3
	Calcite              0   -8.48   -8.48  CaCO3
	CH4(g)         -142.06 -144.92   -2.86  CH4
	CO2(g)           -3.00   -4.47   -1.47  CO2
	Dolomite             0  -17.09  -17.09  CaMg(CO3)2
	Gypsum           -3.97   -8.55   -4.58  CaSO4:2H2O
	H2(g)           -41.21  -44.36   -3.15  H2
	H2O(g)           -1.51       0    1.51  H2O
	H2S(g)         -144.47 -145.47   -1.00  H2S
	Halite           -6.75   -5.17    1.58  NaCl
	O2(g)            -0.70   -3.66   -2.96  O2
	Sulfur         -109.14 -104.26    4.88  S

Time 100000. Cell 7: x=          36000	y=              0	z=              0
Using solution 7.
Using exchange 7
Using surface 7.
Using pure phase assemblage 7.

-------------------------------Phase assemblage--------------------------------

                                                      Moles in assemblage
Phase                  SI log IAP  log KT      Initial       Final       Delta

Calcite                 0   -8.48   -8.48    1.161e-01   1.157e-01  -4.369e-04
Dolomite                0  -17.09  -17.09    1.550e+00   1.550e+00   1.521e-05

------------------------------Surface composition------------------------------

Surf          
	 -5.845e-04  Surface charge, eq
	 -3.134e-03  sigma, C/m**2
	 -1.440e-02  psi, V
	  5.605e-01  -F*psi/RT
	  1.752e+00  exp(-F*psi/RT)
	  6.000e+02  specific area, m**2/g
	  1.800e+04  m**2 for   3.000e+01 g


Surf          
	  1.400e-01  moles
	                                   Mole                     Log
	Species               Moles    Fraction    Molality    Molality

	SurfOH            9.479e-02       0.677   9.480e-02      -1.023
	SurfOH2+          3.036e-02       0.217   3.036e-02      -1.518
	SurfOHAsO4-3      8.048e-03       0.057   8.048e-03      -2.094
	SurfO-            6.781e-03       0.048   6.781e-03      -2.169
	SurfHAsO4-        1.848e-05           0   1.848e-05      -4.733
	SurfH2AsO4        1.916e-07           0   1.916e-07      -6.718

-----------------------------Exchange composition------------------------------

X                5.000e-01 mol

	                               Equiv-    Equivalent      Log 
	Species             Moles      alents      Fraction     Gamma

	CaX2              1.375e-01   2.749e-01   5.498e-01    -0.164
	NaX               9.733e-02   9.733e-02   1.947e-01    -0.042
	MgX2              6.388e-02   1.278e-01   2.555e-01    -0.162

-----------------------------Solution composition------------------------------

	Elements           Molality       Moles

	As                5.597e-08   5.597e-08
	C                 7.950e-03   7.949e-03
	Ca                1.559e-04   1.559e-04
	Cl                1.388e-04   1.388e-04
	Mg                1.129e-04   1.129e-04
	Na                7.789e-03   7.789e-03
	S                 2.351e-04   2.351e-04

----------------------------Description of solution----------------------------

                                       pH  =   8.028      Charge balance
                                       pe  =  12.577      Adjusted to redox equilibrium
                        Activity of water  =   1.000
                           Ionic strength  =   8.836e-03
                       Mass of water (kg)  =   1.000e+00
                 Total alkalinity (eq/kg)  =   7.868e-03
                       Total CO2 (mol/kg)  =   7.950e-03
                      Temperature (deg C)  =  25.000
                  Electrical balance (eq)  =  -1.498e-04
 Percent error, 100*(Cat-|An|)/(Cat+|An|)  =  -0.90
                               Iterations  =  13
                                  Total H  = 1.110183e+02
                                  Total O  = 5.553037e+01

----------------------------Distribution of species----------------------------

                                                   Log       Log         Log 
   Species                 Molality    Activity  Molality  Activity     Gamma

   OH-                    1.179e-06   1.067e-06    -5.929    -5.972    -0.043
   H+                     1.022e-08   9.377e-09    -7.990    -8.028    -0.037
   H2O                    5.551e+01   9.997e-01     1.744         0         0
As               5.597e-08
   HAsO4-2                5.259e-08   3.558e-08    -7.279    -7.449    -0.170
   H2AsO4-                3.355e-09   3.043e-09    -8.474    -8.517    -0.042
   AsO4-3                 2.890e-11   1.200e-11   -10.539   -10.921    -0.382
   H3AsO4                 4.949e-15   4.959e-15   -14.305   -14.305     0.001
C(-4)            0.000e+00
   CH4                    0.000e+00   0.000e+00  -144.283  -144.282     0.001
C(4)             7.950e-03
   HCO3-                  7.695e-03   7.001e-03    -2.114    -2.155    -0.041
   CO2                    1.473e-04   1.476e-04    -3.832    -3.831     0.001
   CO3-2                  5.110e-05   3.501e-05    -4.292    -4.456    -0.164
   NaHCO3                 2.765e-05   2.770e-05    -4.558    -4.557     0.001
   CaHCO3+                9.288e-06   8.451e-06    -5.032    -5.073    -0.041
   MgHCO3+                6.330e-06   5.741e-06    -5.199    -5.241    -0.042
   CaCO3                  5.554e-06   5.565e-06    -5.255    -5.255     0.001
   NaCO3-                 5.059e-06   4.588e-06    -5.296    -5.338    -0.042
   MgCO3                  2.337e-06   2.341e-06    -5.631    -5.631     0.001
Ca               1.559e-04
   Ca+2                   1.382e-04   9.461e-05    -3.860    -4.024    -0.164
   CaHCO3+                9.288e-06   8.451e-06    -5.032    -5.073    -0.041
   CaCO3                  5.554e-06   5.565e-06    -5.255    -5.255     0.001
   CaSO4                  2.875e-06   2.880e-06    -5.541    -5.541     0.001
   CaOH+                  1.846e-09   1.674e-09    -8.734    -8.776    -0.042
   CaHSO4+                1.745e-13   1.582e-13   -12.758   -12.801    -0.042
Cl               1.388e-04
   Cl-                    1.388e-04   1.257e-04    -3.858    -3.901    -0.043
H(0)             0.000e+00
   H2                     0.000e+00   0.000e+00   -44.361   -44.361     0.001
Mg               1.129e-04
   Mg+2                   1.017e-04   7.008e-05    -3.992    -4.154    -0.162
   MgHCO3+                6.330e-06   5.741e-06    -5.199    -5.241    -0.042
   MgSO4                  2.502e-06   2.507e-06    -5.602    -5.601     0.001
   MgCO3                  2.337e-06   2.341e-06    -5.631    -5.631     0.001
   MgOH+                  2.991e-08   2.713e-08    -7.524    -7.567    -0.042
Na               7.789e-03
   Na+                    7.750e-03   7.037e-03    -2.111    -2.153    -0.042
   NaHCO3                 2.765e-05   2.770e-05    -4.558    -4.557     0.001
   NaSO4-                 5.934e-06   5.382e-06    -5.227    -5.269    -0.042
   NaCO3-                 5.059e-06   4.588e-06    -5.296    -5.338    -0.042
   NaOH                   4.946e-09   4.957e-09    -8.306    -8.305     0.001
O(0)             4.375e-04
   O2                     2.187e-04   2.192e-04    -3.660    -3.659     0.001
S(-2)            0.000e+00
   HS-                    0.000e+00   0.000e+00  -142.993  -143.036    -0.043
   H2S                    0.000e+00   0.000e+00  -144.123  -144.122     0.001
   S-2                    0.000e+00   0.000e+00  -147.760  -147.926    -0.166
S(6)             2.351e-04
   SO4-2                  2.238e-04   1.526e-04    -3.650    -3.816    -0.166
   NaSO4-                 5.934e-06   5.382e-06    -5.227    -5.269    -0.042
   CaSO4                  2.875e-06   2.880e-06    -5.541    -5.541     0.001
   MgSO4                  2.502e-06   2.507e-06    -5.602    -5.601     0.001
   HSO4-                  1.534e-10   1.391e-10    -9.814    -9.857    -0.042
   CaHSO4+                1.745e-13   1.582e-13   -12.758   -12.801    -0.042

------------------------------Saturation indices-------------------------------

	Phase               SI log IAP  log KT

	Anhydrite        -3.48   -7.84   -4.36  CaSO4
	Aragonite        -0.14   -8.48   -8.34  CaCO3
	Calcite              0   -8.48   -8.48  CaCO3
	CH4(g)         -141.42 -144.28   -2.86  CH4
	CO2(g)           -2.36   -3.83   -1.47  CO2
	Dolomite             0  -17.09  -17.09  CaMg(CO3)2
	Gypsum           -3.26   -7.84   -4.58  CaSO4:2H2O
	H2(g)           -41.21  -44.36   -3.15  H2
	H2O(g)           -1.51       0    1.51  H2O
	H2S(g)         -143.13 -144.12   -1.00  H2S
	Halite           -7.64   -6.05    1.58  NaCl
	O2(g)            -0.70   -3.66   -2.96  O2
	Sulfur         -107.79 -102.91    4.88  S

Time 100000. Cell 49: x=              0	y=          18000	z=              0
Using solution 49.
Using exchange 49
Using surface 49.
Using pure phase assemblage 49.

-------------------------------Phase assemblage--------------------------------

                                                      Moles in assemblage
Phase                  SI log IAP  log KT      Initial       Final       Delta

Calcite                 0   -8.48   -8.48    1.244e-01   1.242e-01  -2.249e-04
Dolomite                0  -17.09  -17.09    1.564e+00   1.564e+00  -3.414e-04

------------------------------Surface composition------------------------------

Surf          
	  7.701e-03  Surface charge, eq
	  4.128e-02  sigma, C/m**2
	  4.710e-02  psi, V
	 -1.833e+00  -F*psi/RT
	  1.599e-01  exp(-F*psi/RT)
	  6.000e+02  specific area, m**2/g
	  1.800e+04  m**2 for   3.000e+01 g


Surf          
	  1.400e-01  moles
	                                   Mole                     Log
	Species               Moles    Fraction    Molality    Molality

	SurfOH            9.001e-02       0.643   9.000e-02      -1.046
	SurfOH2+          3.689e-02       0.263   3.689e-02      -1.433
	SurfOHAsO4-3      8.042e-03       0.057   8.042e-03      -2.095
	SurfO-            5.031e-03       0.036   5.031e-03      -2.298
	SurfHAsO4-        3.036e-05           0   3.035e-05      -4.518
	SurfH2AsO4        4.026e-07           0   4.026e-07      -6.395

-----------------------------Exchange composition------------------------------

X                5.000e-01 mol

	                               Equiv-    Equivalent      Log 
	Species             Moles      alents      Fraction     Gamma

	NaX               2.959e-01   2.959e-01   5.919e-01    -0.110
	CaX2              7.050e-02   1.410e-01   2.820e-01    -0.422
	MgX2              3.154e-02   6.307e-02   1.261e-01    -0.403

-----------------------------Solution composition------------------------------

	Elements           Molality       Moles

	As                1.724e-09   1.724e-09
	C                 2.444e-02   2.444e-02
	Ca                1.808e-03   1.808e-03
	Cl                7.906e-02   7.906e-02
	Mg                1.278e-03   1.278e-03
	Na                1.142e-01   1.142e-01
	S                 2.884e-04   2.884e-04

----------------------------Description of solution----------------------------

                                       pH  =   6.881      Charge balance
                                       pe  =  13.726      Adjusted to redox equilibrium
                        Activity of water  =   0.996
                           Ionic strength  =   1.120e-01
                       Mass of water (kg)  =   1.000e+00
                 Total alkalinity (eq/kg)  =   2.015e-02
                       Total CO2 (mol/kg)  =   2.444e-02
                      Temperature (deg C)  =  25.000
                  Electrical balance (eq)  =   2.059e-02
 Percent error, 100*(Cat-|An|)/(Cat+|An|)  =   9.44
                               Iterations  =   4
                                  Total H  = 1.110387e+02
                                  Total O  = 5.557987e+01

----------------------------Distribution of species----------------------------

                                                   Log       Log         Log 
   Species                 Molality    Activity  Molality  Activity     Gamma

   H+                     1.601e-07   1.315e-07    -6.795    -6.881    -0.086
   OH-                    1.007e-07   7.587e-08    -6.997    -7.120    -0.123
   H2O                    5.551e+01   9.963e-01     1.744    -0.002         0
As               1.724e-09
   HAsO4-2                1.106e-09   3.994e-10    -8.956    -9.399    -0.442
   H2AsO4-                6.177e-10   4.788e-10    -9.209    -9.320    -0.111
   AsO4-3                 9.507e-14   9.607e-15   -13.022   -14.017    -0.995
   H3AsO4                 1.066e-14   1.094e-14   -13.972   -13.961     0.011
C(-4)            0.000e+00
   CH4                    0.000e+00   0.000e+00  -142.831  -142.820     0.011
C(4)             2.444e-02
   HCO3-                  1.911e-02   1.494e-02    -1.719    -1.826    -0.107
   CO2                    4.318e-03   4.431e-03    -2.365    -2.353     0.011
   NaHCO3                 7.206e-04   7.395e-04    -3.142    -3.131     0.011
   CaHCO3+                1.516e-04   1.185e-04    -3.819    -3.926    -0.107
   MgHCO3+                1.038e-04   8.048e-05    -3.984    -4.094    -0.111
   CO3-2                  1.427e-05   5.328e-06    -4.845    -5.273    -0.428
   NaCO3-                 1.127e-05   8.735e-06    -4.948    -5.059    -0.111
   CaCO3                  5.423e-06   5.565e-06    -5.266    -5.255     0.011
   MgCO3                  2.282e-06   2.341e-06    -5.642    -5.631     0.011
Ca               1.808e-03
   Ca+2                   1.641e-03   6.217e-04    -2.785    -3.206    -0.422
   CaHCO3+                1.516e-04   1.185e-04    -3.819    -3.926    -0.107
   CaSO4                  9.742e-06   9.997e-06    -5.011    -5.000     0.011
   CaCO3                  5.423e-06   5.565e-06    -5.266    -5.255     0.011
   CaOH+                  1.009e-09   7.819e-10    -8.996    -9.107    -0.111
   CaHSO4+                9.932e-12   7.699e-12   -11.003   -11.114    -0.111
Cl               7.906e-02
   Cl-                    7.906e-02   5.977e-02    -1.102    -1.223    -0.121
H(0)             0.000e+00
   H2                     0.000e+00   0.000e+00   -44.376   -44.365     0.011
Mg               1.278e-03
   Mg+2                   1.164e-03   4.605e-04    -2.934    -3.337    -0.403
   MgHCO3+                1.038e-04   8.048e-05    -3.984    -4.094    -0.111
   MgSO4                  8.479e-06   8.700e-06    -5.072    -5.060     0.011
   MgCO3                  2.282e-06   2.341e-06    -5.642    -5.631     0.011
   MgOH+                  1.635e-08   1.267e-08    -7.787    -7.897    -0.111
Na               1.142e-01
   Na+                    1.134e-01   8.804e-02    -0.945    -1.055    -0.110
   NaHCO3                 7.206e-04   7.395e-04    -3.142    -3.131     0.011
   NaSO4-                 4.588e-05   3.556e-05    -4.338    -4.449    -0.111
   NaCO3-                 1.127e-05   8.735e-06    -4.948    -5.059    -0.111
   NaOH                   4.296e-09   4.408e-09    -8.367    -8.356     0.011
O(0)             4.332e-04
   O2                     2.166e-04   2.223e-04    -3.664    -3.653     0.011
S(-2)            0.000e+00
   HS-                    0.000e+00   0.000e+00  -142.056  -142.179    -0.123
   H2S                    0.000e+00   0.000e+00  -142.129  -142.118     0.011
   S-2                    0.000e+00   0.000e+00  -147.775  -148.215    -0.440
S(6)             2.884e-04
   SO4-2                  2.243e-04   8.059e-05    -3.649    -4.094    -0.445
   NaSO4-                 4.588e-05   3.556e-05    -4.338    -4.449    -0.111
   CaSO4                  9.742e-06   9.997e-06    -5.011    -5.000     0.011
   MgSO4                  8.479e-06   8.700e-06    -5.072    -5.060     0.011
   HSO4-                  1.329e-09   1.030e-09    -8.877    -8.987    -0.111
   CaHSO4+                9.932e-12   7.699e-12   -11.003   -11.114    -0.111

------------------------------Saturation indices-------------------------------

	Phase               SI log IAP  log KT

	Anhydrite        -2.94   -7.30   -4.36  CaSO4
	Aragonite        -0.14   -8.48   -8.34  CaCO3
	Calcite              0   -8.48   -8.48  CaCO3
	CH4(g)         -139.96 -142.82   -2.86  CH4
	CO2(g)           -0.89   -2.35   -1.47  CO2
	Dolomite             0  -17.09  -17.09  CaMg(CO3)2
	Gypsum           -2.72   -7.30   -4.58  CaSO4:2H2O
	H2(g)           -41.22  -44.37   -3.15  H2
	H2O(g)           -1.51       0    1.51  H2O
	H2S(g)         -141.12 -142.12   -1.00  H2S
	Halite           -3.86   -2.28    1.58  NaCl
	O2(g)            -0.69   -3.65   -2.96  O2
	Sulfur         -105.79 -100.90    4.88  S

Time 100000. Cell 52: x=          18000	y=          18000	z=              0
Using solution 52.
Using exchange 52
Using surface 52.
Using pure phase assemblage 52.

-------------------------------Phase assemblage--------------------------------

                                                      Moles in assemblage
Phase                  SI log IAP  log KT      Initial       Final       Delta

Calcite                 0   -8.48   -8.48    1.379e-01   1.378e-01  -1.078e-04
Dolomite                0  -17.09  -17.09    1.549e+00   1.549e+00  -3.359e-05

------------------------------Surface composition------------------------------

Surf          
	 -2.597e-03  Surface charge, eq
	 -1.392e-02  sigma, C/m**2
	 -4.976e-02  psi, V
	  1.937e+00  -F*psi/RT
	  6.937e+00  exp(-F*psi/RT)
	  6.000e+02  specific area, m**2/g
	  1.800e+04  m**2 for   3.000e+01 g


Surf          
	  1.400e-01  moles
	                                   Mole                     Log
	Species               Moles    Fraction    Molality    Molality

	SurfOH            9.578e-02       0.684   9.578e-02      -1.019
	SurfOH2+          2.887e-02       0.206   2.887e-02      -1.540
	SurfOHAsO4-3      8.056e-03       0.058   8.056e-03      -2.094
	SurfO-            7.280e-03       0.052   7.281e-03      -2.138
	SurfHAsO4-        1.639e-05           0   1.639e-05      -4.786
	SurfH2AsO4        1.598e-07           0   1.598e-07      -6.796

-----------------------------Exchange composition------------------------------

X                5.000e-01 mol

	                               Equiv-    Equivalent      Log 
	Species             Moles      alents      Fraction     Gamma

	NaX               2.287e-01   2.287e-01   4.574e-01    -0.046
	CaX2              9.265e-02   1.853e-01   3.706e-01    -0.181
	MgX2              4.300e-02   8.600e-02   1.720e-01    -0.178

-----------------------------Solution composition------------------------------

	Elements           Molality       Moles

	As                8.143e-07   8.143e-07
	C                 8.762e-03   8.762e-03
	Ca                3.993e-05   3.993e-05
	Cl                9.979e-04   9.979e-04
	Mg                2.762e-05   2.762e-05
	Na                1.068e-02   1.068e-02
	S                 2.357e-04   2.357e-04

----------------------------Description of solution----------------------------

                                       pH  =   8.652      Charge balance
                                       pe  =  11.953      Adjusted to redox equilibrium
                        Activity of water  =   1.000
                           Ionic strength  =   1.107e-02
                       Mass of water (kg)  =   1.000e+00
                 Total alkalinity (eq/kg)  =   9.011e-03
                       Total CO2 (mol/kg)  =   8.762e-03
                      Temperature (deg C)  =  25.000
                  Electrical balance (eq)  =   3.318e-04
 Percent error, 100*(Cat-|An|)/(Cat+|An|)  =   1.57
                               Iterations  =   9
                                  Total H  = 1.110188e+02
                                  Total O  = 5.553281e+01

----------------------------Distribution of species----------------------------

                                                   Log       Log         Log 
   Species                 Molality    Activity  Molality  Activity     Gamma

   OH-                    5.014e-06   4.491e-06    -5.300    -5.348    -0.048
   H+                     2.448e-09   2.228e-09    -8.611    -8.652    -0.041
   H2O                    5.551e+01   9.996e-01     1.744         0         0
As               8.143e-07
   HAsO4-2                8.006e-07   5.203e-07    -6.097    -6.284    -0.187
   H2AsO4-                1.178e-08   1.057e-08    -7.929    -7.976    -0.047
   AsO4-3                 1.947e-09   7.383e-10    -8.711    -9.132    -0.421
   H3AsO4                 4.084e-15   4.094e-15   -14.389   -14.388     0.001
C(-4)            0.000e+00
   CH4                    0.000e+00   0.000e+00  -144.874  -144.873     0.001
C(4)             8.762e-03
   HCO3-                  8.400e-03   7.570e-03    -2.076    -2.121    -0.045
   CO3-2                  2.415e-04   1.593e-04    -3.617    -3.798    -0.181
   NaHCO3                 4.045e-05   4.056e-05    -4.393    -4.392     0.001
   CO2                    3.784e-05   3.794e-05    -4.422    -4.421     0.001
   NaCO3-                 3.148e-05   2.827e-05    -4.502    -4.549    -0.047
   CaCO3                  5.551e-06   5.565e-06    -5.256    -5.255     0.001
   MgCO3                  2.336e-06   2.341e-06    -5.632    -5.631     0.001
   CaHCO3+                2.228e-06   2.008e-06    -5.652    -5.697    -0.045
   MgHCO3+                1.519e-06   1.364e-06    -5.818    -5.865    -0.047
Ca               3.993e-05
   Ca+2                   3.154e-05   2.079e-05    -4.501    -4.682    -0.181
   CaCO3                  5.551e-06   5.565e-06    -5.256    -5.255     0.001
   CaHCO3+                2.228e-06   2.008e-06    -5.652    -5.697    -0.045
   CaSO4                  6.150e-07   6.165e-07    -6.211    -6.210     0.001
   CaOH+                  1.724e-09   1.548e-09    -8.763    -8.810    -0.047
   CaHSO4+                8.964e-15   8.048e-15   -14.048   -14.094    -0.047
Cl               9.979e-04
   Cl-                    9.979e-04   8.943e-04    -3.001    -3.049    -0.048
H(0)             0.000e+00
   H2                     0.000e+00   0.000e+00   -44.362   -44.361     0.001
Mg               2.762e-05
   Mg+2                   2.320e-05   1.540e-05    -4.635    -4.812    -0.178
   MgCO3                  2.336e-06   2.341e-06    -5.632    -5.631     0.001
   MgHCO3+                1.519e-06   1.364e-06    -5.818    -5.865    -0.047
   MgSO4                  5.352e-07   5.366e-07    -6.271    -6.270     0.001
   MgOH+                  2.794e-08   2.509e-08    -7.554    -7.601    -0.047
Na               1.068e-02
   Na+                    1.060e-02   9.528e-03    -1.975    -2.021    -0.046
   NaHCO3                 4.045e-05   4.056e-05    -4.393    -4.392     0.001
   NaCO3-                 3.148e-05   2.827e-05    -4.502    -4.549    -0.047
   NaSO4-                 7.904e-06   7.096e-06    -5.102    -5.149    -0.047
   NaOH                   2.817e-08   2.824e-08    -7.550    -7.549     0.001
O(0)             4.374e-04
   O2                     2.187e-04   2.193e-04    -3.660    -3.659     0.001
S(-2)            0.000e+00
   HS-                    0.000e+00   0.000e+00  -143.624  -143.672    -0.048
   H2S                    0.000e+00   0.000e+00  -145.383  -145.382     0.001
   S-2                    0.000e+00   0.000e+00  -147.755  -147.938    -0.183
S(6)             2.357e-04
   SO4-2                  2.266e-04   1.486e-04    -3.645    -3.828    -0.183
   NaSO4-                 7.904e-06   7.096e-06    -5.102    -5.149    -0.047
   CaSO4                  6.150e-07   6.165e-07    -6.211    -6.210     0.001
   MgSO4                  5.352e-07   5.366e-07    -6.271    -6.270     0.001
   HSO4-                  3.586e-11   3.220e-11   -10.445   -10.492    -0.047
   CaHSO4+                8.964e-15   8.048e-15   -14.048   -14.094    -0.047

------------------------------Saturation indices-------------------------------

	Phase               SI log IAP  log KT

	Anhydrite        -4.15   -8.51   -4.36  CaSO4
	Aragonite        -0.14   -8.48   -8.34  CaCO3
	Calcite              0   -8.48   -8.48  CaCO3
	CH4(g)         -142.01 -144.87   -2.86  CH4
	CO2(g)           -2.95   -4.42   -1.47  CO2
	Dolomite             0  -17.09  -17.09  CaMg(CO3)2
	Gypsum           -3.93   -8.51   -4.58  CaSO4:2H2O
	H2(g)           -41.21  -44.36   -3.15  H2
	H2O(g)           -1.51       0    1.51  H2O
	H2S(g)         -144.39 -145.38   -1.00  H2S
	Halite           -6.65   -5.07    1.58  NaCl
	O2(g)            -0.70   -3.66   -2.96  O2
	Sulfur         -109.05 -104.17    4.88  S

Time 100000. Cell 55: x=          36000	y=          18000	z=              0
Using solution 55.
Using exchange 55
Using surface 55.
Using pure phase assemblage 55.

-------------------------------Phase assemblage--------------------------------

                                                      Moles in assemblage
Phase                  SI log IAP  log KT      Initial       Final       Delta

Calcite                 0   -8.48   -8.48    1.080e-01   1.076e-01  -4.253e-04
Dolomite                0  -17.09  -17.09    1.553e+00   1.553e+00   4.491e-05

------------------------------Surface composition------------------------------

Surf          
	  3.065e-04  Surface charge, eq
	  1.643e-03  sigma, C/m**2
	  7.683e-03  psi, V
	 -2.991e-01  -F*psi/RT
	  7.415e-01  exp(-F*psi/RT)
	  6.000e+02  specific area, m**2/g
	  1.800e+04  m**2 for   3.000e+01 g


Surf          
	  1.400e-01  moles
	                                   Mole                     Log
	Species               Moles    Fraction    Molality    Molality

	SurfOH            9.433e-02       0.674   9.433e-02      -1.025
	SurfOH2+          3.104e-02       0.222   3.104e-02      -1.508
	SurfOHAsO4-3      8.049e-03       0.057   8.049e-03      -2.094
	SurfO-            6.567e-03       0.047   6.567e-03      -2.183
	SurfHAsO4-        1.951e-05           0   1.952e-05      -4.710
	SurfH2AsO4        2.078e-07           0   2.078e-07      -6.682

-----------------------------Exchange composition------------------------------

X                5.000e-01 mol

	                               Equiv-    Equivalent      Log 
	Species             Moles      alents      Fraction     Gamma

	CaX2              1.523e-01   3.046e-01   6.091e-01    -0.163
	MgX2              7.077e-02   1.415e-01   2.831e-01    -0.161
	NaX               5.389e-02   5.389e-02   1.078e-01    -0.042

-----------------------------Solution composition------------------------------

	Elements           Molality       Moles

	As                1.121e-08   1.121e-08
	C                 7.728e-03   7.728e-03
	Ca                3.875e-04   3.875e-04
	Cl                1.359e-04   1.359e-04
	Mg                2.834e-04   2.834e-04
	Na                6.539e-03   6.539e-03
	S                 2.351e-04   2.351e-04

----------------------------Description of solution----------------------------

                                       pH  =   7.643      Charge balance
                                       pe  =  12.962      Adjusted to redox equilibrium
                        Activity of water  =   1.000
                           Ionic strength  =   8.693e-03
                       Mass of water (kg)  =   1.000e+00
                 Total alkalinity (eq/kg)  =   7.419e-03
                       Total CO2 (mol/kg)  =   7.728e-03
                      Temperature (deg C)  =  25.000
                  Electrical balance (eq)  =  -1.437e-04
 Percent error, 100*(Cat-|An|)/(Cat+|An|)  =  -0.92
                               Iterations  =  11
                                  Total H  = 1.110183e+02
                                  Total O  = 5.552970e+01

----------------------------Distribution of species----------------------------

                                                   Log       Log         Log 
   Species                 Molality    Activity  Molality  Activity     Gamma

   OH-                    4.854e-07   4.397e-07    -6.314    -6.357    -0.043
   H+                     2.480e-08   2.276e-08    -7.606    -7.643    -0.037
   H2O                    5.551e+01   9.997e-01     1.744         0         0
As               1.121e-08
   HAsO4-2                9.705e-09   6.586e-09    -8.013    -8.181    -0.168
   H2AsO4-                1.506e-09   1.367e-09    -8.822    -8.864    -0.042
   AsO4-3                 2.190e-12   9.150e-13   -11.660   -12.039    -0.379
   H3AsO4                 5.395e-15   5.406e-15   -14.268   -14.267     0.001
C(-4)            0.000e+00
   CH4                    0.000e+00   0.000e+00  -143.921  -143.920     0.001
C(4)             7.728e-03
   HCO3-                  7.299e-03   6.646e-03    -2.137    -2.177    -0.041
   CO2                    3.395e-04   3.401e-04    -3.469    -3.468     0.001
   CaHCO3+                2.253e-05   2.051e-05    -4.647    -4.688    -0.041
   NaHCO3                 2.206e-05   2.211e-05    -4.656    -4.656     0.001
   CO3-2                  1.993e-05   1.369e-05    -4.700    -4.863    -0.163
   MgHCO3+                1.535e-05   1.393e-05    -4.814    -4.856    -0.042
   CaCO3                  5.554e-06   5.565e-06    -5.255    -5.255     0.001
   MgCO3                  2.337e-06   2.341e-06    -5.631    -5.631     0.001
   NaCO3-                 1.662e-06   1.508e-06    -5.779    -5.822    -0.042
Ca               3.875e-04
   Ca+2                   3.523e-04   2.419e-04    -3.453    -3.616    -0.163
   CaHCO3+                2.253e-05   2.051e-05    -4.647    -4.688    -0.041
   CaSO4                  7.143e-06   7.157e-06    -5.146    -5.145     0.001
   CaCO3                  5.554e-06   5.565e-06    -5.255    -5.255     0.001
   CaOH+                  1.943e-09   1.764e-09    -8.712    -8.754    -0.042
   CaHSO4+                1.051e-12   9.543e-13   -11.978   -12.020    -0.042
Cl               1.359e-04
   Cl-                    1.359e-04   1.231e-04    -3.867    -3.910    -0.043
H(0)             0.000e+00
   H2                     0.000e+00   0.000e+00   -44.361   -44.361     0.001
Mg               2.834e-04
   Mg+2                   2.595e-04   1.792e-04    -3.586    -3.747    -0.161
   MgHCO3+                1.535e-05   1.393e-05    -4.814    -4.856    -0.042
   MgSO4                  6.217e-06   6.229e-06    -5.206    -5.206     0.001
   MgCO3                  2.337e-06   2.341e-06    -5.631    -5.631     0.001
   MgOH+                  3.149e-08   2.858e-08    -7.502    -7.544    -0.042
Na               6.539e-03
   Na+                    6.511e-03   5.915e-03    -2.186    -2.228    -0.042
   NaHCO3                 2.206e-05   2.211e-05    -4.656    -4.656     0.001
   NaSO4-                 4.844e-06   4.396e-06    -5.315    -5.357    -0.042
   NaCO3-                 1.662e-06   1.508e-06    -5.779    -5.822    -0.042
   NaOH                   1.713e-09   1.717e-09    -8.766    -8.765     0.001
O(0)             4.375e-04
   O2                     2.187e-04   2.192e-04    -3.660    -3.659     0.001
S(-2)            0.000e+00
   HS-                    0.000e+00   0.000e+00  -142.620  -142.663    -0.043
   H2S                    0.000e+00   0.000e+00  -143.365  -143.364     0.001
   S-2                    0.000e+00   0.000e+00  -147.774  -147.938    -0.165
S(6)             2.351e-04
   SO4-2                  2.169e-04   1.483e-04    -3.664    -3.829    -0.165
   CaSO4                  7.143e-06   7.157e-06    -5.146    -5.145     0.001
   MgSO4                  6.217e-06   6.229e-06    -5.206    -5.206     0.001
   NaSO4-                 4.844e-06   4.396e-06    -5.315    -5.357    -0.042
   HSO4-                  3.615e-10   3.281e-10    -9.442    -9.484    -0.042
   CaHSO4+                1.051e-12   9.543e-13   -11.978   -12.020    -0.042

------------------------------Saturation indices-------------------------------

	Phase               SI log IAP  log KT

	Anhydrite        -3.08   -7.45   -4.36  CaSO4
	Aragonite        -0.14   -8.48   -8.34  CaCO3
	Calcite              0   -8.48   -8.48  CaCO3
	CH4(g)         -141.06 -143.92   -2.86  CH4
	CO2(g)           -2.00   -3.47   -1.47  CO2
	Dolomite             0  -17.09  -17.09  CaMg(CO3)2
	Gypsum           -2.86   -7.45   -4.58  CaSO4:2H2O
	H2(g)           -41.21  -44.36   -3.15  H2
	H2O(g)           -1.51       0    1.51  H2O
	H2S(g)         -142.37 -143.36   -1.00  H2S
	Halite           -7.72   -6.14    1.58  NaCl
	O2(g)            -0.70   -3.66   -2.96  O2
	Sulfur         -107.04 -102.15    4.88  S

Time 100000. Cell 81: x=              0	y=          30000	z=              0
Using solution 81.
Using exchange 81
Using surface 81.
Using pure phase assemblage 81.

-------------------------------Phase assemblage--------------------------------

                                                      Moles in assemblage
Phase                  SI log IAP  log KT      Initial       Final       Delta

Calcite                 0   -8.48   -8.48    1.262e-01   1.260e-01  -2.299e-04
Dolomite                0  -17.09  -17.09    1.564e+00   1.563e+00  -3.497e-04

------------------------------Surface composition------------------------------

Surf          
	  8.844e-03  Surface charge, eq
	  4.741e-02  sigma, C/m**2
	  5.016e-02  psi, V
	 -1.952e+00  -F*psi/RT
	  1.419e-01  exp(-F*psi/RT)
	  6.000e+02  specific area, m**2/g
	  1.800e+04  m**2 for   3.000e+01 g


Surf          
	  1.400e-01  moles
	                                   Mole                     Log
	Species               Moles    Fraction    Molality    Molality

	SurfOH            8.928e-02       0.638   8.927e-02      -1.049
	SurfOH2+          3.782e-02       0.270   3.782e-02      -1.422
	SurfOHAsO4-3      8.040e-03       0.057   8.040e-03      -2.095
	SurfO-            4.827e-03       0.034   4.827e-03      -2.316
	SurfHAsO4-        3.245e-05           0   3.244e-05      -4.489
	SurfH2AsO4        4.448e-07           0   4.448e-07      -6.352

-----------------------------Exchange composition------------------------------

X                5.000e-01 mol

	                               Equiv-    Equivalent      Log 
	Species             Moles      alents      Fraction     Gamma

	NaX               2.970e-01   2.970e-01   5.940e-01    -0.114
	CaX2              7.021e-02   1.404e-01   2.808e-01    -0.436
	MgX2              3.129e-02   6.259e-02   1.252e-01    -0.415

-----------------------------Solution composition------------------------------

	Elements           Molality       Moles

	As                1.534e-09   1.534e-09
[...]
Ca               1.010e-03
   Ca+2                   9.337e-04   6.390e-04    -3.030    -3.194    -0.165
   CaHCO3+                5.331e-05   4.850e-05    -4.273    -4.314    -0.041
   CaSO4                  1.735e-05   1.739e-05    -4.761    -4.760     0.001
   CaCO3                  5.554e-06   5.565e-06    -5.255    -5.255     0.001
   CaOH+                  2.173e-09   1.970e-09    -8.663    -8.705    -0.042
   CaHSO4+                6.046e-12   5.482e-12   -11.219   -11.261    -0.042
Cl               1.337e-04
   Cl-                    1.337e-04   1.211e-04    -3.874    -3.917    -0.043
H(0)             0.000e+00
   H2                     0.000e+00   0.000e+00   -44.361   -44.361     0.001
Mg               7.415e-04
   Mg+2                   6.877e-04   4.734e-04    -3.163    -3.325    -0.162
   MgHCO3+                3.633e-05   3.295e-05    -4.440    -4.482    -0.042
   MgSO4                  1.510e-05   1.513e-05    -4.821    -4.820     0.001
   MgCO3                  2.337e-06   2.341e-06    -5.631    -5.631     0.001
   MgOH+                  3.521e-08   3.193e-08    -7.453    -7.496    -0.042
Na               3.667e-03
   Na+                    3.653e-03   3.316e-03    -2.437    -2.479    -0.042
   NaHCO3                 1.107e-05   1.109e-05    -4.956    -4.955     0.001
   NaSO4-                 2.499e-06   2.266e-06    -5.602    -5.645    -0.042
   NaCO3-                 3.529e-07   3.201e-07    -6.452    -6.495    -0.042
   NaOH                   4.062e-10   4.070e-10    -9.391    -9.390     0.001
O(0)             4.375e-04
   O2                     2.187e-04   2.192e-04    -3.660    -3.659     0.001
S(-2)            0.000e+00
   HS-                    0.000e+00   0.000e+00  -142.283  -142.326    -0.043
   H2S                    0.000e+00   0.000e+00  -142.654  -142.653     0.001
   S-2                    0.000e+00   0.000e+00  -147.809  -147.975    -0.166
S(6)             2.351e-04
   SO4-2                  2.001e-04   1.364e-04    -3.699    -3.865    -0.167
   CaSO4                  1.735e-05   1.739e-05    -4.761    -4.760     0.001
   MgSO4                  1.510e-05   1.513e-05    -4.821    -4.820     0.001
   NaSO4-                 2.499e-06   2.266e-06    -5.602    -5.645    -0.042
   HSO4-                  7.869e-10   7.136e-10    -9.104    -9.147    -0.042
   CaHSO4+                6.046e-12   5.482e-12   -11.219   -11.261    -0.042

------------------------------Saturation indices-------------------------------

	Phase               SI log IAP  log KT

	Anhydrite        -2.70   -7.06   -4.36  CaSO4
	Aragonite        -0.14   -8.48   -8.34  CaCO3
	Calcite              0   -8.48   -8.48  CaCO3
	CH4(g)         -140.73 -143.59   -2.86  CH4
	CO2(g)           -1.67   -3.14   -1.47  CO2
	Dolomite             0  -17.09  -17.09  CaMg(CO3)2
	Gypsum           -2.48   -7.06   -4.58  CaSO4:2H2O
	H2(g)           -41.21  -44.36   -3.15  H2
	H2O(g)           -1.51       0    1.51  H2O
	H2S(g)         -141.66 -142.65   -1.00  H2S
	Halite           -7.98   -6.40    1.58  NaCl
	O2(g)            -0.70   -3.66   -2.96  O2
	Sulfur         -106.32 -101.44    4.88  S

Time 100000. Cell 637: x=          72000	y=          18000	z=            400
Cell is dry.
Time 100000. Cell 640: x=          90000	y=          18000	z=            400
Cell is dry.
Time 100000. Cell 657: x=              0	y=          30000	z=            400
Cell is dry.
Time 100000. Cell 660: x=          18000	y=          30000	z=            400
Cell is dry.
Time 100000. Cell 663: x=          36000	y=          30000	z=            400
Using solution 663.
Using exchange 663
Using surface 663.
Using pure phase assemblage 663.

-------------------------------Phase assemblage--------------------------------

                                                      Moles in assemblage
Phase                  SI log IAP  log KT      Initial       Final       Delta

Calcite                 0   -8.48   -8.48    1.007e-01   1.004e-01  -3.039e-04
Dolomite                0  -17.09  -17.09    1.555e+00   1.556e+00   5.865e-05

------------------------------Surface composition------------------------------

Surf          
	  9.274e-04  Surface charge, eq
	  4.972e-03  sigma, C/m**2
	  2.254e-02  psi, V
	 -8.773e-01  -F*psi/RT
	  4.159e-01  exp(-F*psi/RT)
	  6.000e+02  specific area, m**2/g
	  1.800e+04  m**2 for   3.000e+01 g


Surf          
	  1.400e-01  moles
	                                   Mole                     Log
	Species               Moles    Fraction    Molality    Molality

	SurfOH            9.399e-02       0.671   9.399e-02      -1.027
	SurfOH2+          3.152e-02       0.225   3.152e-02      -1.501
	SurfOHAsO4-3      8.049e-03       0.057   8.049e-03      -2.094
	SurfO-            6.422e-03       0.046   6.422e-03      -2.192
	SurfHAsO4-        2.026e-05           0   2.026e-05      -4.693
	SurfH2AsO4        2.199e-07           0   2.199e-07      -6.658

-----------------------------Exchange composition------------------------------

X                5.000e-01 mol

	                               Equiv-    Equivalent      Log 
	Species             Moles      alents      Fraction     Gamma

	CaX2              1.606e-01   3.213e-01   6.426e-01    -0.164
	MgX2              7.465e-02   1.493e-01   2.986e-01    -0.161
	NaX               2.940e-02   2.940e-02   5.881e-02    -0.042

-----------------------------Solution composition------------------------------

	Elements           Molality       Moles

	As                4.006e-09   4.006e-09
	C                 7.503e-03   7.503e-03
	Ca                7.453e-04   7.453e-04
	Cl                1.343e-04   1.343e-04
	Mg                5.467e-04   5.467e-04
	Na                4.844e-03   4.844e-03
	S                 2.351e-04   2.351e-04

----------------------------Description of solution----------------------------

                                       pH  =   7.384      Charge balance
                                       pe  =  13.222      Adjusted to redox equilibrium
                        Activity of water  =   1.000
                           Ionic strength  =   8.743e-03
                       Mass of water (kg)  =   1.000e+00
                 Total alkalinity (eq/kg)  =   6.945e-03
                       Total CO2 (mol/kg)  =   7.503e-03
                      Temperature (deg C)  =  25.000
                  Electrical balance (eq)  =  -1.215e-04
 Percent error, 100*(Cat-|An|)/(Cat+|An|)  =  -0.83
                               Iterations  =   6
                                  Total H  = 1.110183e+02
                                  Total O  = 5.552903e+01

----------------------------Distribution of species----------------------------

                                                   Log       Log         Log 
   Species                 Molality    Activity  Molality  Activity     Gamma

   OH-                    2.672e-07   2.420e-07    -6.573    -6.616    -0.043
   H+                     4.506e-08   4.135e-08    -7.346    -7.384    -0.037
   H2O                    5.551e+01   9.998e-01     1.744         0         0
As               4.006e-09
   HAsO4-2                3.125e-09   2.119e-09    -8.505    -8.674    -0.169
   H2AsO4-                8.805e-10   7.989e-10    -9.055    -9.097    -0.042
   AsO4-3                 3.886e-13   1.620e-13   -12.410   -12.790    -0.380
   H3AsO4                 5.729e-15   5.741e-15   -14.242   -14.241     0.001
C(-4)            0.000e+00
   CH4                    0.000e+00   0.000e+00  -143.691  -143.690     0.001
C(4)             7.503e-03
   HCO3-                  6.823e-03   6.211e-03    -2.166    -2.207    -0.041
   CO2                    5.764e-04   5.775e-04    -3.239    -3.238     0.001
   CaHCO3+                4.094e-05   3.726e-05    -4.388    -4.429    -0.041
   MgHCO3+                2.790e-05   2.531e-05    -4.554    -4.597    -0.042
   NaHCO3                 1.528e-05   1.531e-05    -4.816    -4.815     0.001
   CO3-2                  1.026e-05   7.044e-06    -4.989    -5.152    -0.163
   CaCO3                  5.554e-06   5.565e-06    -5.255    -5.255     0.001
   MgCO3                  2.337e-06   2.341e-06    -5.631    -5.631     0.001
   NaCO3-                 6.335e-07   5.748e-07    -6.198    -6.240    -0.042
Ca               7.453e-04
   Ca+2                   6.856e-04   4.703e-04    -3.164    -3.328    -0.164
   CaHCO3+                4.094e-05   3.726e-05    -4.388    -4.429    -0.041
   CaSO4                  1.324e-05   1.326e-05    -4.878    -4.877     0.001
   CaCO3                  5.554e-06   5.565e-06    -5.255    -5.255     0.001
   CaOH+                  2.080e-09   1.887e-09    -8.682    -8.724    -0.042
   CaHSO4+                3.540e-12   3.212e-12   -11.451   -11.493    -0.042
Cl               1.343e-04
   Cl-                    1.343e-04   1.217e-04    -3.872    -3.915    -0.043
H(0)             0.000e+00
   H2                     0.000e+00   0.000e+00   -44.361   -44.361     0.001
Mg               5.467e-04
   Mg+2                   5.049e-04   3.483e-04    -3.297    -3.458    -0.161
   MgHCO3+                2.790e-05   2.531e-05    -4.554    -4.597    -0.042
   MgSO4                  1.152e-05   1.154e-05    -4.939    -4.938     0.001
   MgCO3                  2.337e-06   2.341e-06    -5.631    -5.631     0.001
   MgOH+                  3.370e-08   3.058e-08    -7.472    -7.515    -0.042
Na               4.844e-03
   Na+                    4.825e-03   4.383e-03    -2.317    -2.358    -0.042
   NaHCO3                 1.528e-05   1.531e-05    -4.816    -4.815     0.001
   NaSO4-                 3.421e-06   3.104e-06    -5.466    -5.508    -0.042
   NaCO3-                 6.335e-07   5.748e-07    -6.198    -6.240    -0.042
   NaOH                   6.987e-10   7.001e-10    -9.156    -9.155     0.001
O(0)             4.375e-04
   O2                     2.187e-04   2.192e-04    -3.660    -3.659     0.001
S(-2)            0.000e+00
   HS-                    0.000e+00   0.000e+00  -142.382  -142.425    -0.043
   H2S                    0.000e+00   0.000e+00  -142.868  -142.867     0.001
   S-2                    0.000e+00   0.000e+00  -147.794  -147.959    -0.165
S(6)             2.351e-04
   SO4-2                  2.069e-04   1.413e-04    -3.684    -3.850    -0.165
   CaSO4                  1.324e-05   1.326e-05    -4.878    -4.877     0.001
   MgSO4                  1.152e-05   1.154e-05    -4.939    -4.938     0.001
   NaSO4-                 3.421e-06   3.104e-06    -5.466    -5.508    -0.042
   HSO4-                  6.262e-10   5.682e-10    -9.203    -9.246    -0.042
   CaHSO4+                3.540e-12   3.212e-12   -11.451   -11.493    -0.042

------------------------------Saturation indices-------------------------------

	Phase               SI log IAP  log KT

	Anhydrite        -2.82   -7.18   -4.36  CaSO4
	Aragonite        -0.14   -8.48   -8.34  CaCO3
	Calcite              0   -8.48   -8.48  CaCO3
	CH4(g)         -140.83 -143.69   -2.86  CH4
	CO2(g)           -1.77   -3.24   -1.47  CO2
	Dolomite             0  -17.09  -17.09  CaMg(CO3)2
	Gypsum           -2.60   -7.18   -4.58  CaSO4:2H2O
	H2(g)           -41.21  -44.36   -3.15  H2
	H2O(g)           -1.51       0    1.51  H2O
	H2S(g)         -141.87 -142.87   -1.00  H2S
	Halite           -7.85   -6.27    1.58  NaCl
	O2(g)            -0.70   -3.66   -2.96  O2
	Sulfur         -106.54 -101.66    4.88  S

Time 100000. Cell 666: x=          54000	y=          30000	z=            400
Using solution 666.
Using exchange 666
Using surface 666.
Using pure phase assemblage 666.

-------------------------------Phase assemblage--------------------------------

                                                      Moles in assemblage
Phase                  SI log IAP  log KT      Initial       Final       Delta

Calcite                 0   -8.48   -8.48    9.315e-02   9.288e-02  -2.621e-04
Dolomite                0  -17.09  -17.09    1.558e+00   1.558e+00   5.607e-05

------------------------------Surface composition------------------------------

Surf          
	  1.182e-03  Surface charge, eq
	  6.335e-03  sigma, C/m**2
	  2.807e-02  psi, V
	 -1.093e+00  -F*psi/RT
	  3.353e-01  exp(-F*psi/RT)
	  6.000e+02  specific area, m**2/g
	  1.800e+04  m**2 for   3.000e+01 g


Surf          
	  1.400e-01  moles
	                                   Mole                     Log
	Species               Moles    Fraction    Molality    Molality

	SurfOH            9.386e-02       0.670   9.386e-02      -1.028
	SurfOH2+          3.171e-02       0.226   3.171e-02      -1.499
	SurfOHAsO4-3      8.047e-03       0.057   8.047e-03      -2.094
	SurfO-            6.365e-03       0.045   6.365e-03      -2.196
	SurfHAsO4-        2.057e-05           0   2.057e-05      -4.687
	SurfH2AsO4        2.248e-07           0   2.248e-07      -6.648

-----------------------------Exchange composition------------------------------

X                5.000e-01 mol

	                               Equiv-    Equivalent      Log 
	Species             Moles      alents      Fraction     Gamma

	CaX2              1.636e-01   3.272e-01   6.543e-01    -0.164
	MgX2              7.601e-02   1.520e-01   3.041e-01    -0.162
	NaX               2.081e-02   2.081e-02   4.163e-02    -0.042

-----------------------------Solution composition------------------------------

	Elements           Molality       Moles

	As                2.776e-09   2.776e-09
	C                 7.394e-03   7.394e-03
	Ca                9.630e-04   9.630e-04
	Cl                1.337e-04   1.337e-04
	Mg                7.069e-04   7.069e-04
	Na                3.870e-03   3.870e-03
	S                 2.351e-04   2.351e-04

----------------------------Description of solution----------------------------

                                       pH  =   7.287      Charge balance
                                       pe  =  13.318      Adjusted to redox equilibrium
                        Activity of water  =   1.000
                           Ionic strength  =   8.840e-03
                       Mass of water (kg)  =   1.000e+00
                 Total alkalinity (eq/kg)  =   6.715e-03
                       Total CO2 (mol/kg)  =   7.394e-03
                      Temperature (deg C)  =  25.000
                  Electrical balance (eq)  =  -1.092e-04
 Percent error, 100*(Cat-|An|)/(Cat+|An|)  =  -0.77
                               Iterations  =   6
                                  Total H  = 1.110184e+02
                                  Total O  = 5.552870e+01

----------------------------Distribution of species----------------------------

                                                   Log       Log         Log 
   Species                 Molality    Activity  Molality  Activity     Gamma

   OH-                    2.140e-07   1.937e-07    -6.670    -6.713    -0.043
   H+                     5.633e-08   5.167e-08    -7.249    -7.287    -0.037
   H2O                    5.551e+01   9.998e-01     1.744         0         0
As               2.776e-09
   HAsO4-2                2.053e-09   1.389e-09    -8.688    -8.857    -0.170
   H2AsO4-                7.219e-10   6.547e-10    -9.142    -9.184    -0.042
   AsO4-3                 2.048e-13   8.503e-14   -12.689   -13.070    -0.382
   H3AsO4                 5.867e-15   5.878e-15   -14.232   -14.231     0.001
C(-4)            0.000e+00
   CH4                    0.000e+00   0.000e+00  -143.610  -143.609     0.001
C(4)             7.394e-03
   HCO3-                  6.585e-03   5.991e-03    -2.181    -2.222    -0.041
   CO2                    6.947e-04   6.962e-04    -3.158    -3.157     0.001
   CaHCO3+                5.118e-05   4.656e-05    -4.291    -4.332    -0.041
   MgHCO3+                3.488e-05   3.163e-05    -4.457    -4.500    -0.042
   NaHCO3                 1.177e-05   1.179e-05    -4.929    -4.928     0.001
   CO3-2                  7.936e-06   5.438e-06    -5.100    -5.265    -0.164
   CaCO3                  5.554e-06   5.565e-06    -5.255    -5.255     0.001
   MgCO3                  2.337e-06   2.341e-06    -5.631    -5.631     0.001
   NaCO3-                 3.908e-07   3.544e-07    -6.408    -6.450    -0.042
Ca               9.630e-04
   Ca+2                   8.896e-04   6.092e-04    -3.051    -3.215    -0.164
   CaHCO3+                5.118e-05   4.656e-05    -4.291    -4.332    -0.041
   CaSO4                  1.665e-05   1.668e-05    -4.779    -4.778     0.001
   CaCO3                  5.554e-06   5.565e-06    -5.255    -5.255     0.001
   CaOH+                  2.157e-09   1.956e-09    -8.666    -8.709    -0.042
   CaHSO4+                5.568e-12   5.049e-12   -11.254   -11.297    -0.042
Cl               1.337e-04
   Cl-                    1.337e-04   1.211e-04    -3.874    -3.917    -0.043
H(0)             0.000e+00
   H2                     0.000e+00   0.000e+00   -44.361   -44.361     0.001
Mg               7.069e-04
   Mg+2                   6.552e-04   4.512e-04    -3.184    -3.346    -0.162
   MgHCO3+                3.488e-05   3.163e-05    -4.457    -4.500    -0.042
   MgSO4                  1.449e-05   1.452e-05    -4.839    -4.838     0.001
   MgCO3                  2.337e-06   2.341e-06    -5.631    -5.631     0.001
   MgOH+                  3.495e-08   3.170e-08    -7.457    -7.499    -0.042
Na               3.870e-03
   Na+                    3.855e-03   3.500e-03    -2.414    -2.456    -0.042
   NaHCO3                 1.177e-05   1.179e-05    -4.929    -4.928     0.001
   NaSO4-                 2.655e-06   2.408e-06    -5.576    -5.618    -0.042
   NaCO3-                 3.908e-07   3.544e-07    -6.408    -6.450    -0.042
   NaOH                   4.466e-10   4.475e-10    -9.350    -9.349     0.001
O(0)             4.375e-04
   O2                     2.187e-04   2.192e-04    -3.660    -3.659     0.001
S(-2)            0.000e+00
   HS-                    0.000e+00   0.000e+00  -142.298  -142.341    -0.043
   H2S                    0.000e+00   0.000e+00  -142.687  -142.686     0.001
   S-2                    0.000e+00   0.000e+00  -147.806  -147.972    -0.166
S(6)             2.351e-04
   SO4-2                  2.013e-04   1.372e-04    -3.696    -3.862    -0.166
   CaSO4                  1.665e-05   1.668e-05    -4.779    -4.778     0.001
   MgSO4                  1.449e-05   1.452e-05    -4.839    -4.838     0.001
   NaSO4-                 2.655e-06   2.408e-06    -5.576    -5.618    -0.042
   HSO4-                  7.602e-10   6.895e-10    -9.119    -9.161    -0.042
   CaHSO4+                5.568e-12   5.049e-12   -11.254   -11.297    -0.042

------------------------------Saturation indices-------------------------------

	Phase               SI log IAP  log KT

	Anhydrite        -2.72   -7.08   -4.36  CaSO4
	Aragonite        -0.14   -8.48   -8.34  CaCO3
	Calcite              0   -8.48   -8.48  CaCO3
	CH4(g)         -140.75 -143.61   -2.86  CH4
	CO2(g)           -1.69   -3.16   -1.47  CO2
	Dolomite             0  -17.09  -17.09  CaMg(CO3)2
	Gypsum           -2.50   -7.08   -4.58  CaSO4:2H2O
	H2(g)           -41.21  -44.36   -3.15  H2
	H2O(g)           -1.51       0    1.51  H2O
	H2S(g)         -141.69 -142.69   -1.00  H2S
	Halite           -7.95   -6.37    1.58  NaCl
	O2(g)            -0.70   -3.66   -2.96  O2
	Sulfur         -106.36 -101.48    4.88  S

Time 100000. Cell 669: x=          72000	y=          30000	z=            400
Cell is dry.
Time 100000. Cell 672: x=          90000	y=          30000	z=            400
Cell is dry.
Time 100000. Cell 705: x=              0	y=          48000	z=            400
Cell is dry.
Time 100000. Cell 708: x=          18000	y=          48000	z=            400
Cell is dry.
Time 100000. Cell 711: x=          36000	y=          48000	z=            400
Cell is dry.
Time 100000. Cell 714: x=          54000	y=          48000	z=            400
Cell is dry.
Time 100000. Cell 717: x=          72000	y=          48000	z=            400
Cell is dry.
Time 100000. Cell 720: x=          90000	y=          48000	z=            400
Cell is dry.
