Output file:    ex4.O.chem
Chemistry file: ex4.chem.dat
Database file:  phast.dat

------------------
Reading data base.
------------------

	SOLUTION_MASTER_SPECIES
	SOLUTION_SPECIES
	PHASES
	EXCHANGE_MASTER_SPECIES
	EXCHANGE_SPECIES
	SURFACE_MASTER_SPECIES
	SURFACE_SPECIES
	RATES
	END
------------------------------------
Reading input data for simulation 1.
------------------------------------

	SURFACE_MASTER_SPECIES
	        Surf    SurfOH
	SURFACE_SPECIES
	        SurfOH = SurfOH
	                log_k   0.0
	        SurfOH  + H+ = SurfOH2+
	                log_k   7.29
	        SurfOH = SurfO- + H+
	                log_k   -8.93
	        SurfOH + AsO4-3 + 3H+ = SurfH2AsO4 + H2O
	                log_k   29.31
	        SurfOH + AsO4-3 + 2H+ = SurfHAsO4- + H2O
	                log_k   23.51
	        SurfOH + AsO4-3 = SurfOHAsO4-3
	                log_k   10.58
	SOLUTION_MASTER_SPECIES
	        As       H3AsO4        -1.0     74.9216         74.9216
	SOLUTION_SPECIES
		H3AsO4 = H2AsO4- + H+
		log_k	-2.3
		delta_h	-7.066	kJ
		H3AsO4 = HAsO4-2 + 2H+
		log_k	-9.46
		delta_h	-3.846	kJ
		H3AsO4 = AsO4-3 + 3H+
		log_k	-21.11
		delta_h	14.354	kJ
	        H3AsO4 = H2AsO4- + H+ 
	        log_k           -2.243
	        delta_h -1.69 kcal
	        H3AsO4 = HAsO4-2 + 2H+ 
	        log_k           -9.001
	        delta_h -0.92 kcal
	        H3AsO4 = AsO4-3 + 3H+
	        log_k           -20.597
	        delta_h 3.43 kcal
	        H3AsO4 = H3AsO4
	        log_k           0.0
	        H3AsO4 = AsO4-3 + 3H+
	        log_k   -20.7
	        H+ + AsO4-3 = HAsO4-2
	        log_k   11.50
	        2H+ + AsO4-3 = H2AsO4-
	        log_k           18.46
	SOLUTION 1 20 x precipitation
	        pH      4.6
	        pe      4.0     O2(g)   -0.7
	        temp    25.
	        units   mmol/kgw
	        Ca      .191625
	        Mg      .035797
	        Na      .122668
	        Cl      .133704
	        C       .01096
	        S       .235153         charge
	END
-------------------------------------------
Beginning of initial solution calculations.
-------------------------------------------

Initial solution 1.	20 x precipitation

-----------------------------Solution composition------------------------------

	Elements           Molality       Moles

	C                 1.096e-05   1.096e-05
	Ca                1.916e-04   1.916e-04
	Cl                1.337e-04   1.337e-04
	Mg                3.580e-05   3.580e-05
	Na                1.227e-04   1.227e-04
	S                 2.351e-04   2.351e-04  Charge balance

----------------------------Description of solution----------------------------

                                       pH  =   4.600    
                                       pe  =  16.005      Equilibrium with O2(g)
                        Activity of water  =   1.000
                           Ionic strength  =   1.035e-03
                       Mass of water (kg)  =   1.000e+00
                 Total alkalinity (eq/kg)  =  -2.630e-05
                       Total CO2 (mol/kg)  =   1.096e-05
                      Temperature (deg C)  =  25.000
                  Electrical balance (eq)  =   7.111e-16
 Percent error, 100*(Cat-|An|)/(Cat+|An|)  =      0
                               Iterations  =   9
                                  Total H  = 1.110125e+02
                                  Total O  = 5.550762e+01

----------------------------Distribution of species----------------------------

                                                   Log       Log         Log 
   Species                 Molality    Activity  Molality  Activity     Gamma

   H+                     2.600e-05   2.512e-05    -4.585    -4.600    -0.015
   OH-                    4.133e-10   3.985e-10    -9.384    -9.400    -0.016
   H2O                    5.551e+01   1.000e+00     1.744         0         0
C(-4)            0.000e+00
   CH4                    0.000e+00   0.000e+00  -145.418  -145.418         0
C(4)             1.096e-05
   CO2                    1.076e-05   1.076e-05    -4.968    -4.968         0
   HCO3-                  1.975e-07   1.906e-07    -6.704    -6.720    -0.015
   CaHCO3+                4.048e-10   3.907e-10    -9.393    -9.408    -0.015
   MgHCO3+                6.905e-11   6.660e-11   -10.161   -10.177    -0.016
   NaHCO3                 1.267e-11   1.267e-11   -10.897   -10.897         0
   CO3-2                  4.105e-13   3.559e-13   -12.387   -12.449    -0.062
   CaCO3                  9.601e-14   9.603e-14   -13.018   -13.018         0
   MgCO3                  1.014e-14   1.014e-14   -13.994   -13.994         0
   NaCO3-                 8.122e-16   7.833e-16   -15.090   -15.106    -0.016
Ca               1.916e-04
   Ca+2                   1.853e-04   1.606e-04    -3.732    -3.794    -0.062
   CaSO4                  6.296e-06   6.297e-06    -5.201    -5.201         0
   CaHSO4+                9.608e-10   9.267e-10    -9.017    -9.033    -0.016
   CaHCO3+                4.048e-10   3.907e-10    -9.393    -9.408    -0.015
   CaOH+                  1.100e-12   1.061e-12   -11.958   -11.974    -0.016
   CaCO3                  9.601e-14   9.603e-14   -13.018   -13.018         0
Cl               1.337e-04
   Cl-                    1.337e-04   1.289e-04    -3.874    -3.890    -0.016
H(0)             0.000e+00
   H2                     0.000e+00   0.000e+00   -44.360   -44.360         0
Mg               3.580e-05
   Mg+2                   3.442e-05   2.986e-05    -4.463    -4.525    -0.062
   MgSO4                  1.375e-06   1.375e-06    -5.862    -5.862         0
   MgHCO3+                6.905e-11   6.660e-11   -10.161   -10.177    -0.016
   MgOH+                  4.475e-12   4.316e-12   -11.349   -11.365    -0.016
   MgCO3                  1.014e-14   1.014e-14   -13.994   -13.994         0
Na               1.227e-04
   Na+                    1.225e-04   1.182e-04    -3.912    -3.927    -0.016
   NaSO4-                 1.207e-07   1.164e-07    -6.918    -6.934    -0.016
   NaHCO3                 1.267e-11   1.267e-11   -10.897   -10.897         0
   NaOH                   3.109e-14   3.109e-14   -13.507   -13.507         0
   NaCO3-                 8.122e-16   7.833e-16   -15.090   -15.106    -0.016
O(0)             4.374e-04
   O2                     2.187e-04   2.188e-04    -3.660    -3.660         0
S(-2)            0.000e+00
   H2S                    0.000e+00   0.000e+00  -137.155  -137.155         0
   HS-                    0.000e+00   0.000e+00  -139.481  -139.497    -0.016
   S-2                    0.000e+00   0.000e+00  -147.752  -147.815    -0.062
S(6)             2.351e-04
   SO4-2                  2.268e-04   1.965e-04    -3.644    -3.707    -0.062
   CaSO4                  6.296e-06   6.297e-06    -5.201    -5.201         0
   MgSO4                  1.375e-06   1.375e-06    -5.862    -5.862         0
   HSO4-                  4.975e-07   4.798e-07    -6.303    -6.319    -0.016
   NaSO4-                 1.207e-07   1.164e-07    -6.918    -6.934    -0.016
   CaHSO4+                9.608e-10   9.267e-10    -9.017    -9.033    -0.016

------------------------------Saturation indices-------------------------------

	Phase               SI log IAP  log KT

	Anhydrite        -3.14   -7.50   -4.36  CaSO4
	Aragonite        -7.91  -16.24   -8.34  CaCO3
	Calcite          -7.76  -16.24   -8.48  CaCO3
	CH4(g)         -142.56 -145.42   -2.86  CH4
	CO2(g)           -3.50   -4.97   -1.47  CO2
	Dolomite        -16.13  -33.22  -17.09  CaMg(CO3)2
	Gypsum           -2.92   -7.50   -4.58  CaSO4:2H2O
	H2(g)           -41.21  -44.36   -3.15  H2
	H2O(g)           -1.51       0    1.51  H2O
	H2S(g)         -136.16 -137.16   -1.00  H2S
	Halite           -9.40   -7.82    1.58  NaCl
	O2(g)            -0.70   -3.66   -2.96  O2
	Sulfur         -100.83  -95.95    4.88  S

------------------
End of simulation.
------------------

------------------------------------
Reading input data for simulation 2.
------------------------------------

	USE solution 1
	EQUILIBRIUM_PHASES 1
	        Dolomite        0.0     1.6
	        Calcite         0.0     0.1
	        CO2(g)          -1.5    100.
	SAVE solution 1
	END
-----------------------------------------
Beginning of batch-reaction calculations.
-----------------------------------------

Reaction step 1.

-------------------------------Phase assemblage--------------------------------

                                                      Moles in assemblage
Phase                  SI log IAP  log KT      Initial       Final       Delta

Calcite                 0   -8.48   -8.48    1.000e-01   9.966e-02  -3.441e-04
CO2(g)              -1.50   -2.97   -1.47    1.000e+02   1.000e+02  -4.066e-03
Dolomite                0  -17.09  -17.09    1.600e+00   1.599e+00  -1.349e-03

-----------------------------Solution composition------------------------------

	Elements           Molality       Moles

	C                 7.119e-03   7.119e-03
	Ca                1.885e-03   1.884e-03
	Cl                1.337e-04   1.337e-04
	Mg                1.385e-03   1.385e-03
	Na                1.227e-04   1.227e-04
	S                 2.351e-04   2.351e-04

----------------------------Description of solution----------------------------

                                       pH  =   7.047      Charge balance
                                       pe  =  13.558      Adjusted to redox equilibrium
                        Activity of water  =   1.000
                           Ionic strength  =   9.629e-03
                       Mass of water (kg)  =   9.999e-01
                 Total alkalinity (eq/kg)  =   6.057e-03
                       Total CO2 (mol/kg)  =   7.119e-03
                      Temperature (deg C)  =  25.000
                  Electrical balance (eq)  =   2.136e-15
 Percent error, 100*(Cat-|An|)/(Cat+|An|)  =      0
                               Iterations  =   9
                                  Total H  = 1.110125e+02
                                  Total O  = 5.552487e+01

----------------------------Distribution of species----------------------------

                                                   Log       Log         Log 
   Species                 Molality    Activity  Molality  Activity     Gamma

   OH-                    1.236e-07   1.115e-07    -6.908    -6.953    -0.045
   H+                     9.814e-08   8.977e-08    -7.008    -7.047    -0.039
   H2O                    5.551e+01   9.998e-01     1.744         0         0
C(-4)            0.000e+00
   CH4                    0.000e+00   0.000e+00  -143.421  -143.420     0.001
C(4)             7.119e-03
   HCO3-                  5.883e-03   5.333e-03    -2.230    -2.273    -0.043
   CO2                    1.074e-03   1.077e-03    -2.969    -2.968     0.001
   CaHCO3+                8.923e-05   8.090e-05    -4.049    -4.092    -0.043
   MgHCO3+                6.082e-05   5.496e-05    -4.216    -4.260    -0.044
   CaCO3                  5.553e-06   5.565e-06    -5.256    -5.255     0.001
   CO3-2                  4.124e-06   2.786e-06    -5.385    -5.555    -0.170
   MgCO3                  2.336e-06   2.341e-06    -5.631    -5.631     0.001
   NaHCO3                 3.310e-07   3.317e-07    -6.480    -6.479     0.001
   NaCO3-                 6.350e-09   5.738e-09    -8.197    -8.241    -0.044
Ca               1.885e-03
   Ca+2                   1.761e-03   1.189e-03    -2.754    -2.925    -0.171
   CaHCO3+                8.923e-05   8.090e-05    -4.049    -4.092    -0.043
   CaSO4                  2.881e-05   2.888e-05    -4.540    -4.539     0.001
   CaCO3                  5.553e-06   5.565e-06    -5.256    -5.255     0.001
   CaOH+                  2.432e-09   2.198e-09    -8.614    -8.658    -0.044
   CaHSO4+                1.681e-11   1.519e-11   -10.775   -10.819    -0.044
Cl               1.337e-04
   Cl-                    1.337e-04   1.206e-04    -3.874    -3.919    -0.045
H(0)             0.000e+00
   H2                     0.000e+00   0.000e+00   -44.361   -44.361     0.001
Mg               1.385e-03
   Mg+2                   1.296e-03   8.807e-04    -2.887    -3.055    -0.168
   MgHCO3+                6.082e-05   5.496e-05    -4.216    -4.260    -0.044
   MgSO4                  2.507e-05   2.513e-05    -4.601    -4.600     0.001
   MgCO3                  2.336e-06   2.341e-06    -5.631    -5.631     0.001
   MgOH+                  3.941e-08   3.561e-08    -7.404    -7.448    -0.044
Na               1.227e-04
   Na+                    1.223e-04   1.106e-04    -3.913    -3.956    -0.044
   NaHCO3                 3.310e-07   3.317e-07    -6.480    -6.479     0.001
   NaSO4-                 7.467e-08   6.747e-08    -7.127    -7.171    -0.044
   NaCO3-                 6.350e-09   5.738e-09    -8.197    -8.241    -0.044
   NaOH                   8.120e-12   8.138e-12   -11.090   -11.089     0.001
O(0)             4.375e-04
   O2                     2.187e-04   2.192e-04    -3.660    -3.659     0.001
S(-2)            0.000e+00
   HS-                    0.000e+00   0.000e+00  -142.108  -142.153    -0.045
   H2S                    0.000e+00   0.000e+00  -142.259  -142.258     0.001
   S-2                    0.000e+00   0.000e+00  -147.852  -148.024    -0.172
S(6)             2.351e-04
   SO4-2                  1.811e-04   1.217e-04    -3.742    -3.915    -0.173
   CaSO4                  2.881e-05   2.888e-05    -4.540    -4.539     0.001
   MgSO4                  2.507e-05   2.513e-05    -4.601    -4.600     0.001
   NaSO4-                 7.467e-08   6.747e-08    -7.127    -7.171    -0.044
   HSO4-                  1.176e-09   1.062e-09    -8.930    -8.974    -0.044
   CaHSO4+                1.681e-11   1.519e-11   -10.775   -10.819    -0.044

------------------------------Saturation indices-------------------------------

	Phase               SI log IAP  log KT

	Anhydrite        -2.48   -6.84   -4.36  CaSO4
	Aragonite        -0.14   -8.48   -8.34  CaCO3
	Calcite              0   -8.48   -8.48  CaCO3
	CH4(g)         -140.56 -143.42   -2.86  CH4
	CO2(g)           -1.50   -2.97   -1.47  CO2
	Dolomite             0  -17.09  -17.09  CaMg(CO3)2
	Gypsum           -2.26   -6.84   -4.58  CaSO4:2H2O
	H2(g)           -41.21  -44.36   -3.15  H2
	H2O(g)           -1.51       0    1.51  H2O
	H2S(g)         -141.26 -142.26   -1.00  H2S
	Halite           -9.46   -7.87    1.58  NaCl
	O2(g)            -0.70   -3.66   -2.96  O2
	Sulfur         -105.93 -101.05    4.88  S

------------------
End of simulation.
------------------

------------------------------------
Reading input data for simulation 3.
------------------------------------

	SOLUTION 2 Brine
	        pH      5.713
	        pe      4.0     O2(g)   -0.7
	        temp    25.
	        units   mol/kgw
	        Ca      .4655
	        Mg      .1609
	        Na      5.402
	        Cl      6.642           charge
	        C       .00396
	        S       .004725
	        As      .01 umol/kgw
	END
-------------------------------------------
Beginning of initial solution calculations.
-------------------------------------------

Initial solution 2.	Brine

-----------------------------Solution composition------------------------------

	Elements           Molality       Moles

	As                1.000e-08   1.000e-08
	C                 3.960e-03   3.960e-03
	Ca                4.655e-01   4.655e-01
	Cl                6.642e+00   6.642e+00  Charge balance
	Mg                1.609e-01   1.609e-01
	Na                5.402e+00   5.402e+00
	S                 4.725e-03   4.725e-03

----------------------------Description of solution----------------------------

                                       pH  =   5.713    
                                       pe  =  14.945      Equilibrium with O2(g)
                        Activity of water  =   0.785
                           Ionic strength  =   7.266e+00
                       Mass of water (kg)  =   1.000e+00
                 Total alkalinity (eq/kg)  =   3.758e-03
                       Total CO2 (mol/kg)  =   3.960e-03
                      Temperature (deg C)  =  25.000
                  Electrical balance (eq)  =   1.027e-12
 Percent error, 100*(Cat-|An|)/(Cat+|An|)  =      0
                               Iterations  =  11
                                  Total H  = 1.110162e+02
                                  Total O  = 5.553688e+01

----------------------------Distribution of species----------------------------

                                                   Log       Log         Log 
   Species                 Molality    Activity  Molality  Activity     Gamma

   H+                     2.755e-06   1.936e-06    -5.560    -5.713    -0.153
   OH-                    8.773e-09   4.056e-09    -8.057    -8.392    -0.335
   H2O                    5.551e+01   7.846e-01     1.744    -0.105         0
As               1.000e-08
   H2AsO4-                9.993e-09   5.476e-08    -8.000    -7.262     0.739
   H3AsO4                 3.458e-12   1.843e-11   -11.461   -10.735     0.727
   HAsO4-2                3.440e-12   3.100e-09   -11.463    -8.509     2.955
   AsO4-3                 1.137e-21   5.063e-15   -20.944   -14.296     6.649
C(-4)            0.000e+00
   CH4                    0.000e+00   0.000e+00  -144.357  -143.631     0.727
C(4)             3.960e-03
   CaHCO3+                3.015e-03   1.745e-03    -2.521    -2.758    -0.238
   HCO3-                  3.336e-04   1.931e-04    -3.477    -3.714    -0.238
   MgHCO3+                2.161e-04   1.184e-03    -3.665    -2.927     0.739
   CO2                    2.010e-04   1.071e-03    -3.697    -2.970     0.727
   NaHCO3                 1.924e-04   1.025e-03    -3.716    -2.989     0.727
   CaCO3                  1.044e-06   5.564e-06    -5.981    -5.255     0.727
   MgCO3                  4.389e-07   2.339e-06    -6.358    -5.631     0.727
   NaCO3-                 1.500e-07   8.221e-07    -6.824    -6.085     0.739
   CO3-2                  4.170e-08   4.676e-09    -7.380    -8.330    -0.950
Ca               4.655e-01
   Ca+2                   4.609e-01   7.084e-01    -0.336    -0.150     0.187
   CaHCO3+                3.015e-03   1.745e-03    -2.521    -2.758    -0.238
   CaSO4                  1.600e-03   8.528e-03    -2.796    -2.069     0.727
   CaCO3                  1.044e-06   5.564e-06    -5.981    -5.255     0.727
   CaHSO4+                1.766e-08   9.674e-08    -7.753    -7.014     0.739
   CaOH+                  8.693e-09   4.763e-08    -8.061    -7.322     0.739
Cl               6.642e+00
   Cl-                    6.642e+00   3.946e+00     0.822     0.596    -0.226
H(0)             0.000e+00
   H2                     0.000e+00   0.000e+00   -45.192   -44.465     0.727
Mg               1.609e-01
   Mg+2                   1.593e-01   5.242e-01    -0.798    -0.280     0.517
   MgSO4                  1.391e-03   7.415e-03    -2.857    -2.130     0.727
   MgHCO3+                2.161e-04   1.184e-03    -3.665    -2.927     0.739
   MgCO3                  4.389e-07   2.339e-06    -6.358    -5.631     0.727
   MgOH+                  1.407e-07   7.712e-07    -6.852    -6.113     0.739
Na               5.402e+00
   Na+                    5.401e+00   9.442e+00     0.732     0.975     0.243
   NaSO4-                 5.211e-04   2.855e-03    -3.283    -2.544     0.739
   NaHCO3                 1.924e-04   1.025e-03    -3.716    -2.989     0.727
   NaCO3-                 1.500e-07   8.221e-07    -6.824    -6.085     0.739
   NaOH                   4.743e-09   2.528e-08    -8.324    -7.597     0.727
O(0)             8.211e-05
   O2                     4.106e-05   2.188e-04    -4.387    -3.660     0.727
S(-2)            0.000e+00
   H2S                    0.000e+00   0.000e+00  -140.620  -139.894     0.727
   HS-                    0.000e+00   0.000e+00  -140.787  -141.122    -0.335
   S-2                    0.000e+00   0.000e+00  -147.315  -148.327    -1.012
S(6)             4.725e-03
   CaSO4                  1.600e-03   8.528e-03    -2.796    -2.069     0.727
   MgSO4                  1.391e-03   7.415e-03    -2.857    -2.130     0.727
   SO4-2                  1.212e-03   6.034e-05    -2.916    -4.219    -1.303
   NaSO4-                 5.211e-04   2.855e-03    -3.283    -2.544     0.739
   CaHSO4+                1.766e-08   9.674e-08    -7.753    -7.014     0.739
   HSO4-                  2.073e-09   1.136e-08    -8.683    -7.945     0.739

------------------------------Saturation indices-------------------------------

	Phase               SI log IAP  log KT

	Anhydrite        -0.01   -4.37   -4.36  CaSO4
	Aragonite        -0.14   -8.48   -8.34  CaCO3
	Calcite              0   -8.48   -8.48  CaCO3
	CH4(g)         -140.77 -143.63   -2.86  CH4
	CO2(g)           -1.50   -2.97   -1.47  CO2
	Dolomite             0  -17.09  -17.09  CaMg(CO3)2
	Gypsum               0   -4.58   -4.58  CaSO4:2H2O
	H2(g)           -41.32  -44.47   -3.15  H2
	H2O(g)           -1.62   -0.11    1.51  H2O
	H2S(g)         -138.90 -139.89   -1.00  H2S
	Halite           -0.01    1.57    1.58  NaCl
	O2(g)            -0.70   -3.66   -2.96  O2
	Sulfur         -103.46  -98.58    4.88  S

------------------
End of simulation.
------------------

------------------------------------
Reading input data for simulation 4.
------------------------------------

	USE solution 2
	EQUILIBRIUM_PHASES 2
	        Dolomite        0.0     1.6
	        Calcite         0.0     0.1
	SAVE solution 2
	END
-----------------------------------------
Beginning of batch-reaction calculations.
-----------------------------------------

Reaction step 1.

-------------------------------Phase assemblage--------------------------------

                                                      Moles in assemblage
Phase                  SI log IAP  log KT      Initial       Final       Delta

Calcite                 0   -8.48   -8.48    1.000e-01   1.002e-01   2.185e-04
Dolomite                0  -17.09  -17.09    1.600e+00   1.600e+00  -1.093e-04

-----------------------------Solution composition------------------------------

	Elements           Molality       Moles

	As                1.000e-08   1.000e-08
	C                 3.960e-03   3.960e-03
	Ca                4.654e-01   4.654e-01
	Cl                6.642e+00   6.642e+00
	Mg                1.610e-01   1.610e-01
	Na                5.402e+00   5.402e+00
	S                 4.725e-03   4.725e-03

----------------------------Description of solution----------------------------

                                       pH  =   5.713      Charge balance
                                       pe  =  14.945      Adjusted to redox equilibrium
                        Activity of water  =   0.785
                           Ionic strength  =   7.266e+00
                       Mass of water (kg)  =   1.000e+00
                 Total alkalinity (eq/kg)  =   3.758e-03
                       Total CO2 (mol/kg)  =   3.960e-03
                      Temperature (deg C)  =  25.000
                  Electrical balance (eq)  =   1.033e-12
 Percent error, 100*(Cat-|An|)/(Cat+|An|)  =      0
                               Iterations  =   2
                                  Total H  = 1.110162e+02
                                  Total O  = 5.553688e+01

----------------------------Distribution of species----------------------------

                                                   Log       Log         Log 
   Species                 Molality    Activity  Molality  Activity     Gamma

   H+                     2.754e-06   1.936e-06    -5.560    -5.713    -0.153
   OH-                    8.776e-09   4.057e-09    -8.057    -8.392    -0.335
   H2O                    5.551e+01   7.846e-01     1.744    -0.105         0
As               1.000e-08
   H2AsO4-                9.993e-09   5.476e-08    -8.000    -7.262     0.739
   H3AsO4                 3.457e-12   1.842e-11   -11.461   -10.735     0.727
   HAsO4-2                3.441e-12   3.101e-09   -11.463    -8.508     2.955
   AsO4-3                 1.138e-21   5.066e-15   -20.944   -14.295     6.649
C(-4)            0.000e+00
   CH4                    0.000e+00   0.000e+00  -144.357  -143.631     0.727
C(4)             3.960e-03
   CaHCO3+                3.015e-03   1.745e-03    -2.521    -2.758    -0.238
   HCO3-                  3.337e-04   1.931e-04    -3.477    -3.714    -0.238
   MgHCO3+                2.163e-04   1.185e-03    -3.665    -2.926     0.739
   CO2                    2.010e-04   1.071e-03    -3.697    -2.970     0.727
   NaHCO3                 1.924e-04   1.025e-03    -3.716    -2.989     0.727
   CaCO3                  1.044e-06   5.565e-06    -5.981    -5.255     0.727
   MgCO3                  4.394e-07   2.341e-06    -6.357    -5.631     0.727
   NaCO3-                 1.501e-07   8.224e-07    -6.824    -6.085     0.739
   CO3-2                  4.171e-08   4.678e-09    -7.380    -8.330    -0.950
Ca               4.654e-01
   Ca+2                   4.608e-01   7.082e-01    -0.337    -0.150     0.187
   CaHCO3+                3.015e-03   1.745e-03    -2.521    -2.758    -0.238
   CaSO4                  1.600e-03   8.525e-03    -2.796    -2.069     0.727
   CaCO3                  1.044e-06   5.565e-06    -5.981    -5.255     0.727
   CaHSO4+                1.764e-08   9.668e-08    -7.753    -7.015     0.739
   CaOH+                  8.693e-09   4.763e-08    -8.061    -7.322     0.739
Cl               6.642e+00
   Cl-                    6.642e+00   3.946e+00     0.822     0.596    -0.226
H(0)             0.000e+00
   H2                     0.000e+00   0.000e+00   -45.192   -44.465     0.727
Mg               1.610e-01
   Mg+2                   1.594e-01   5.246e-01    -0.798    -0.280     0.517
   MgSO4                  1.392e-03   7.419e-03    -2.856    -2.130     0.727
   MgHCO3+                2.163e-04   1.185e-03    -3.665    -2.926     0.739
   MgCO3                  4.394e-07   2.341e-06    -6.357    -5.631     0.727
   MgOH+                  1.409e-07   7.719e-07    -6.851    -6.112     0.739
Na               5.402e+00
   Na+                    5.401e+00   9.442e+00     0.732     0.975     0.243
   NaSO4-                 5.210e-04   2.855e-03    -3.283    -2.544     0.739
   NaHCO3                 1.924e-04   1.025e-03    -3.716    -2.989     0.727
   NaCO3-                 1.501e-07   8.224e-07    -6.824    -6.085     0.739
   NaOH                   4.744e-09   2.528e-08    -8.324    -7.597     0.727
O(0)             8.211e-05
   O2                     4.106e-05   2.188e-04    -4.387    -3.660     0.727
S(-2)            0.000e+00
   H2S                    0.000e+00   0.000e+00  -140.621  -139.894     0.727
   HS-                    0.000e+00   0.000e+00  -140.788  -141.123    -0.335
   S-2                    0.000e+00   0.000e+00  -147.315  -148.327    -1.012
S(6)             4.725e-03
   CaSO4                  1.600e-03   8.525e-03    -2.796    -2.069     0.727
   MgSO4                  1.392e-03   7.419e-03    -2.856    -2.130     0.727
   SO4-2                  1.212e-03   6.033e-05    -2.917    -4.219    -1.303
   NaSO4-                 5.210e-04   2.855e-03    -3.283    -2.544     0.739
   CaHSO4+                1.764e-08   9.668e-08    -7.753    -7.015     0.739
   HSO4-                  2.072e-09   1.136e-08    -8.684    -7.945     0.739

------------------------------Saturation indices-------------------------------

	Phase               SI log IAP  log KT

	Anhydrite        -0.01   -4.37   -4.36  CaSO4
	Aragonite        -0.14   -8.48   -8.34  CaCO3
	Calcite              0   -8.48   -8.48  CaCO3
	CH4(g)         -140.77 -143.63   -2.86  CH4
	CO2(g)           -1.50   -2.97   -1.47  CO2
	Dolomite             0  -17.09  -17.09  CaMg(CO3)2
	Gypsum               0   -4.58   -4.58  CaSO4:2H2O
	H2(g)           -41.32  -44.47   -3.15  H2
	H2O(g)           -1.62   -0.11    1.51  H2O
	H2S(g)         -138.90 -139.89   -1.00  H2S
	Halite           -0.01    1.57    1.58  NaCl
	O2(g)            -0.70   -3.66   -2.96  O2
	Sulfur         -103.46  -98.58    4.88  S

------------------
End of simulation.
------------------

------------------------------------
Reading input data for simulation 5.
------------------------------------

	EXCHANGE 2
	        equilibrate with solution 2
	        X       0.5
	SURFACE 2
	        equilibrate solution 2
	        SurfOH          0.14     600.    30.
	END
-------------------------------------------------------
Beginning of initial exchange-composition calculations.
-------------------------------------------------------

Exchange 2.	

X                5.000e-01 mol

	                               Equiv-    Equivalent      Log 
	Species             Moles      alents      Fraction     Gamma

	NaX               4.507e-01   4.507e-01   9.014e-01     0.243
	CaX2              2.024e-02   4.048e-02   8.096e-02     0.187
	MgX2              4.418e-03   8.836e-03   1.767e-02     0.517

------------------------------------------------------
Beginning of initial surface-composition calculations.
------------------------------------------------------

Surface 2.	

Surf          
	  8.470e-02  Surface charge, eq
	  4.541e-01  sigma, C/m**2
	  5.950e-02  psi, V
	 -2.316e+00  -F*psi/RT
	  9.866e-02  exp(-F*psi/RT)
	  6.000e+02  specific area, m**2/g
	  1.800e+04  m**2 for   3.000e+01 g


Surf          
	  1.400e-01  moles
	                                   Mole                     Log
	Species               Moles    Fraction    Molality    Molality

	SurfOH2+          1.039e-01       0.742   1.039e-01      -0.984
	SurfOH            2.789e-02       0.199   2.789e-02      -1.555
	SurfOHAsO4-3      5.593e-03       0.040   5.593e-03      -2.252
	SurfHAsO4-        2.213e-03       0.016   2.213e-03      -2.655
	SurfH2AsO4        2.668e-04       0.002   2.668e-04      -3.574
	SurfO-            1.715e-04       0.001   1.715e-04      -3.766

------------------
End of simulation.
------------------

------------------------------------
Reading input data for simulation 6.
------------------------------------

	SELECTED_OUTPUT
	        file ex4.dummy.sel
	        reset false
	        ph
	USER_PUNCH
	heading        Ca      Mg      Na      Cl      C(4)    SO4     As
	10 PUNCH TOT("Ca")*1e3*40.08
	20 PUNCH TOT("Mg")*1e3*24.312
	30 PUNCH TOT("Na")*1e3*23.
	40 PUNCH TOT("Cl")*1e3*35.45
	50 PUNCH TOT("C(4)")*1e3*61.   # as HCO3-
	60 PUNCH TOT("S(6)")*1e3*96.   # as SO4
	70 PUNCH TOT("As")*1e6*74.296  # ug/L
	END
------------------
End of simulation.
------------------

------------------------------------
Reading input data for simulation 7.
------------------------------------

List of Components:
	1	H
	2	O
	3	As
	4	C
	5	Ca
	6	Cl
	7	Mg
	8	Na
	9	S
	10	Charge
List of master species:
	1	As
	2	C(-4)
	3	C(4)
	4	Ca
	5	Cl
	6	Mg
	7	Na
	8	S(-2)
	9	S(6)
Time 100000. Cell 1: x=              0	y=              0	z=              0
Using solution 1.
Using exchange 1
Using surface 1.
Using pure phase assemblage 1.

-------------------------------Phase assemblage--------------------------------

                                                      Moles in assemblage
Phase                  SI log IAP  log KT      Initial       Final       Delta

Calcite                 0   -8.48   -8.48    1.179e-01   1.176e-01  -2.486e-04
Dolomite                0  -17.09  -17.09    1.569e+00   1.568e+00  -3.776e-04

------------------------------Surface composition------------------------------

Surf          
	  1.024e-02  Surface charge, eq
	  5.488e-02  sigma, C/m**2
	  5.359e-02  psi, V
	 -2.086e+00  -F*psi/RT
	  1.242e-01  exp(-F*psi/RT)
	  6.000e+02  specific area, m**2/g
	  1.800e+04  m**2 for   3.000e+01 g


Surf          
	  1.400e-01  moles
	                                   Mole                     Log
	Species               Moles    Fraction    Molality    Molality

	SurfOH            8.836e-02       0.631   8.836e-02      -1.054
	SurfOH2+          3.897e-02       0.278   3.897e-02      -1.409
	SurfOHAsO4-3      8.037e-03       0.057   8.037e-03      -2.095
	SurfO-            4.590e-03       0.033   4.589e-03      -2.338
	SurfHAsO4-        3.517e-05           0   3.516e-05      -4.454
	SurfH2AsO4        5.019e-07           0   5.019e-07      -6.299

-----------------------------Exchange composition------------------------------

X                5.000e-01 mol

	                               Equiv-    Equivalent      Log 
	Species             Moles      alents      Fraction     Gamma

	NaX               3.049e-01   3.049e-01   6.098e-01    -0.118
	CaX2              6.757e-02   1.351e-01   2.703e-01    -0.450
	MgX2              2.999e-02   5.999e-02   1.200e-01    -0.428

-----------------------------Solution composition------------------------------

	Elements           Molality       Moles

	As                1.354e-09   1.355e-09
	C                 2.789e-02   2.790e-02
	Ca                2.554e-03   2.554e-03
	Cl                1.034e-01   1.034e-01
	Mg                1.793e-03   1.793e-03
	Na                1.430e-01   1.430e-01
	S                 3.049e-04   3.049e-04

----------------------------Description of solution----------------------------

                                       pH  =   6.740      Charge balance
                                       pe  =  13.869      Adjusted to redox equilibrium
                        Activity of water  =   0.995
                           Ionic strength  =   1.415e-01
                       Mass of water (kg)  =   1.000e+00
                 Total alkalinity (eq/kg)  =   2.170e-02
                       Total CO2 (mol/kg)  =   2.789e-02
                      Temperature (deg C)  =  25.000
                  Electrical balance (eq)  =   2.597e-02
 Percent error, 100*(Cat-|An|)/(Cat+|An|)  =   9.46
                               Iterations  =   4
                                  Total H  = 1.110439e+02
                                  Total O  = 5.559025e+01

----------------------------Distribution of species----------------------------

                                                   Log       Log         Log 
   Species                 Molality    Activity  Molality  Activity     Gamma

   H+                     2.245e-07   1.821e-07    -6.649    -6.740    -0.091
   OH-                    7.443e-08   5.470e-08    -7.128    -7.262    -0.134
   H2O                    5.551e+01   9.953e-01     1.744    -0.002         0
As               1.354e-09
   HAsO4-2                7.796e-10   2.639e-10    -9.108    -9.578    -0.470
   H2AsO4-                5.748e-10   4.384e-10    -9.240    -9.358    -0.118
   AsO4-3                 5.241e-14   4.583e-15   -13.281   -14.339    -1.058
   H3AsO4                 1.343e-14   1.388e-14   -13.872   -13.858     0.014
C(-4)            0.000e+00
   CH4                    0.000e+00   0.000e+00  -142.677  -142.663     0.014
C(4)             2.789e-02
   HCO3-                  2.036e-02   1.563e-02    -1.691    -1.806    -0.115
   CO2                    6.223e-03   6.429e-03    -2.206    -2.192     0.014
   NaHCO3                 9.212e-04   9.517e-04    -3.036    -3.022     0.014
   CaHCO3+                2.139e-04   1.641e-04    -3.670    -3.785    -0.115
   MgHCO3+                1.462e-04   1.115e-04    -3.835    -3.953    -0.118
   CO3-2                  1.160e-05   4.023e-06    -4.936    -5.395    -0.460
   NaCO3-                 1.064e-05   8.114e-06    -4.973    -5.091    -0.118
   CaCO3                  5.386e-06   5.565e-06    -5.269    -5.255     0.014
   MgCO3                  2.266e-06   2.341e-06    -5.645    -5.631     0.014
Ca               2.554e-03
   Ca+2                   2.323e-03   8.234e-04    -2.634    -3.084    -0.450
   CaHCO3+                2.139e-04   1.641e-04    -3.670    -3.785    -0.115
   CaSO4                  1.204e-05   1.244e-05    -4.919    -4.905     0.014
   CaCO3                  5.386e-06   5.565e-06    -5.269    -5.255     0.014
   CaOH+                  9.789e-10   7.467e-10    -9.009    -9.127    -0.118
   CaHSO4+                1.741e-11   1.328e-11   -10.759   -10.877    -0.118
Cl               1.034e-01
   Cl-                    1.034e-01   7.636e-02    -0.985    -1.117    -0.132
H(0)             0.000e+00
   H2                     0.000e+00   0.000e+00   -44.380   -44.366     0.014
Mg               1.793e-03
   Mg+2                   1.634e-03   6.099e-04    -2.787    -3.215    -0.428
   MgHCO3+                1.462e-04   1.115e-04    -3.835    -3.953    -0.118
   MgSO4                  1.048e-05   1.083e-05    -4.980    -4.965     0.014
   MgCO3                  2.266e-06   2.341e-06    -5.645    -5.631     0.014
   MgOH+                  1.586e-08   1.210e-08    -7.800    -7.917    -0.118
Na               1.430e-01
   Na+                    1.420e-01   1.083e-01    -0.848    -0.965    -0.118
   NaHCO3                 9.212e-04   9.517e-04    -3.036    -3.022     0.014
   NaSO4-                 5.390e-05   4.111e-05    -4.268    -4.386    -0.118
   NaCO3-                 1.064e-05   8.114e-06    -4.973    -5.091    -0.118
   NaOH                   3.785e-09   3.910e-09    -8.422    -8.408     0.014
O(0)             4.319e-04
   O2                     2.160e-04   2.231e-04    -3.666    -3.651     0.014
S(-2)            0.000e+00
   H2S                    0.000e+00   0.000e+00  -141.879  -141.865     0.014
   HS-                    0.000e+00   0.000e+00  -141.934  -142.067    -0.134
   S-2                    0.000e+00   0.000e+00  -147.772  -148.246    -0.474
S(6)             3.049e-04
   SO4-2                  2.284e-04   7.574e-05    -3.641    -4.121    -0.479
   NaSO4-                 5.390e-05   4.111e-05    -4.268    -4.386    -0.118
   CaSO4                  1.204e-05   1.244e-05    -4.919    -4.905     0.014
   MgSO4                  1.048e-05   1.083e-05    -4.980    -4.965     0.014
   HSO4-                  1.758e-09   1.341e-09    -8.755    -8.872    -0.118
   CaHSO4+                1.741e-11   1.328e-11   -10.759   -10.877    -0.118

------------------------------Saturation indices-------------------------------

	Phase               SI log IAP  log KT

	Anhydrite        -2.84   -7.21   -4.36  CaSO4
	Aragonite        -0.14   -8.48   -8.34  CaCO3
	Calcite              0   -8.48   -8.48  CaCO3
	CH4(g)         -139.80 -142.66   -2.86  CH4
	CO2(g)           -0.72   -2.19   -1.47  CO2
	Dolomite             0  -17.09  -17.09  CaMg(CO3)2
	Gypsum           -2.63   -7.21   -4.58  CaSO4:2H2O
	H2(g)           -41.22  -44.37   -3.15  H2
	H2O(g)           -1.51       0    1.51  H2O
	H2S(g)         -140.87 -141.87   -1.00  H2S
	Halite           -3.66   -2.08    1.58  NaCl
	O2(g)            -0.69   -3.65   -2.96  O2
	Sulfur         -105.53 -100.65    4.88  S

Time 100000. Cell 4: x=          18000	y=              0	z=              0
Using solution 4.
Using exchange 4
Using surface 4.
Using pure phase assemblage 4.

-------------------------------Phase assemblage--------------------------------

                                                      Moles in assemblage
Phase                  SI log IAP  log KT      Initial       Final       Delta

Calcite                 0   -8.48   -8.48    1.298e-01   1.297e-01  -1.102e-04
Dolomite                0  -17.09  -17.09    1.553e+00   1.553e+00  -3.464e-05

------------------------------Surface composition------------------------------

Surf          
	 -2.759e-03  Surface charge, eq
	 -1.479e-02  sigma, C/m**2
	 -5.265e-02  psi, V
	  2.049e+00  -F*psi/RT
	  7.763e+00  exp(-F*psi/RT)
	  6.000e+02  specific area, m**2/g
	  1.800e+04  m**2 for   3.000e+01 g


Surf          
	  1.400e-01  moles
	                                   Mole                     Log
	Species               Moles    Fraction    Molality    Molality

	SurfOH            9.586e-02       0.685   9.586e-02      -1.018
	SurfOH2+          2.874e-02       0.205   2.874e-02      -1.541
	SurfOHAsO4-3      8.054e-03       0.058   8.054e-03      -2.094
	SurfO-            7.324e-03       0.052   7.324e-03      -2.135
	SurfHAsO4-        1.622e-05           0   1.622e-05      -4.790
	SurfH2AsO4        1.573e-07           0   1.573e-07      -6.803

-----------------------------Exchange composition------------------------------

X                5.000e-01 mol

	                               Equiv-    Equivalent      Log 
	Species             Moles      alents      Fraction     Gamma

	NaX               2.326e-01   2.326e-01   4.651e-01    -0.046
	CaX2              9.133e-02   1.827e-01   3.653e-01    -0.179
	MgX2              4.239e-02   8.479e-02   1.696e-01    -0.176

-----------------------------Solution composition------------------------------

	Elements           Molality       Moles

	As                1.007e-06   1.007e-06
	C                 8.711e-03   8.711e-03
	Ca                3.620e-05   3.620e-05
	Cl                7.404e-04   7.404e-04
	Mg                2.488e-05   2.488e-05
	Na                1.033e-02   1.033e-02
	S                 2.355e-04   2.355e-04

----------------------------Description of solution----------------------------

                                       pH  =   8.703      Charge balance
                                       pe  =  11.902      Adjusted to redox equilibrium
                        Activity of water  =   1.000
                           Ionic strength  =   1.077e-02
                       Mass of water (kg)  =   1.000e+00
                 Total alkalinity (eq/kg)  =   8.995e-03
                       Total CO2 (mol/kg)  =   8.711e-03
                      Temperature (deg C)  =  25.000
                  Electrical balance (eq)  =   2.456e-04
 Percent error, 100*(Cat-|An|)/(Cat+|An|)  =   1.20
                               Iterations  =  10
                                  Total H  = 1.110187e+02
                                  Total O  = 5.553266e+01

----------------------------Distribution of species----------------------------

                                                   Log       Log         Log 
   Species                 Molality    Activity  Molality  Activity     Gamma

   OH-                    5.633e-06   5.052e-06    -5.249    -5.297    -0.047
   H+                     2.174e-09   1.981e-09    -8.663    -8.703    -0.040
   H2O                    5.551e+01   9.997e-01     1.744         0         0
As               1.007e-06
   HAsO4-2                9.917e-07   6.477e-07    -6.004    -6.189    -0.185
   H2AsO4-                1.302e-08   1.170e-08    -7.886    -7.932    -0.046
   AsO4-3                 2.696e-09   1.034e-09    -8.569    -8.985    -0.416
   H3AsO4                 4.018e-15   4.028e-15   -14.396   -14.395     0.001
C(-4)            0.000e+00
   CH4                    0.000e+00   0.000e+00  -144.928  -144.927     0.001
C(4)             8.711e-03
   HCO3-                  8.325e-03   7.512e-03    -2.080    -2.124    -0.045
   CO3-2                  2.683e-04   1.779e-04    -3.571    -3.750    -0.179
   NaHCO3                 3.888e-05   3.897e-05    -4.410    -4.409     0.001
   NaCO3-                 3.399e-05   3.055e-05    -4.469    -4.515    -0.046
   CO2                    3.338e-05   3.347e-05    -4.476    -4.475     0.001
   CaCO3                  5.551e-06   5.565e-06    -5.256    -5.255     0.001
   MgCO3                  2.336e-06   2.341e-06    -5.632    -5.631     0.001
   CaHCO3+                1.978e-06   1.785e-06    -5.704    -5.748    -0.045
   MgHCO3+                1.349e-06   1.213e-06    -5.870    -5.916    -0.046
Ca               3.620e-05
   Ca+2                   2.812e-05   1.863e-05    -4.551    -4.730    -0.179
   CaCO3                  5.551e-06   5.565e-06    -5.256    -5.255     0.001
   CaHCO3+                1.978e-06   1.785e-06    -5.704    -5.748    -0.045
   CaSO4                  5.540e-07   5.554e-07    -6.257    -6.255     0.001
   CaOH+                  1.735e-09   1.560e-09    -8.761    -8.807    -0.046
   CaHSO4+                7.169e-15   6.444e-15   -14.145   -14.191    -0.046
Cl               7.404e-04
   Cl-                    7.404e-04   6.644e-04    -3.131    -3.178    -0.047
H(0)             0.000e+00
   H2                     0.000e+00   0.000e+00   -44.362   -44.361     0.001
Mg               2.488e-05
   Mg+2                   2.069e-05   1.380e-05    -4.684    -4.860    -0.176
   MgCO3                  2.336e-06   2.341e-06    -5.632    -5.631     0.001
   MgHCO3+                1.349e-06   1.213e-06    -5.870    -5.916    -0.046
   MgSO4                  4.821e-07   4.833e-07    -6.317    -6.316     0.001
   MgOH+                  2.812e-08   2.528e-08    -7.551    -7.597    -0.046
Na               1.033e-02
   Na+                    1.025e-02   9.226e-03    -1.989    -2.035    -0.046
   NaHCO3                 3.888e-05   3.897e-05    -4.410    -4.409     0.001
   NaCO3-                 3.399e-05   3.055e-05    -4.469    -4.515    -0.046
   NaSO4-                 7.686e-06   6.910e-06    -5.114    -5.161    -0.046
   NaOH                   3.069e-08   3.076e-08    -7.513    -7.512     0.001
O(0)             4.374e-04
   O2                     2.187e-04   2.193e-04    -3.660    -3.659     0.001
S(-2)            0.000e+00
   HS-                    0.000e+00   0.000e+00  -143.673  -143.721    -0.047
   H2S                    0.000e+00   0.000e+00  -145.483  -145.482     0.001
   S-2                    0.000e+00   0.000e+00  -147.755  -147.935    -0.181
S(6)             2.355e-04
   SO4-2                  2.268e-04   1.494e-04    -3.644    -3.826    -0.181
   NaSO4-                 7.686e-06   6.910e-06    -5.114    -5.161    -0.046
   CaSO4                  5.540e-07   5.554e-07    -6.257    -6.255     0.001
   MgSO4                  4.821e-07   4.833e-07    -6.317    -6.316     0.001
   HSO4-                  3.201e-11   2.878e-11   -10.495   -10.541    -0.046
   CaHSO4+                7.169e-15   6.444e-15   -14.145   -14.191    -0.046

------------------------------Saturation indices-------------------------------

	Phase               SI log IAP  log KT

	Anhydrite        -4.19   -8.56   -4.36  CaSO4
	Aragonite        -0.14   -8.48   -8.34  CaCO3
	Calcite              0   -8.48   -8.48  CaCO3
	CH4(g)         -142.07 -144.93   -2.86  CH4
	CO2(g)           -3.01   -4.48   -1.47  CO2
	Dolomite             0  -17.09  -17.09  CaMg(CO3)2
	Gypsum           -3.97   -8.56   -4.58  CaSO4:2H2O
	H2(g)           -41.21  -44.36   -3.15  H2
	H2O(g)           -1.51       0    1.51  H2O
	H2S(g)         -144.49 -145.48   -1.00  H2S
	Halite           -6.79   -5.21    1.58  NaCl
	O2(g)            -0.70   -3.66   -2.96  O2
	Sulfur         -109.15 -104.27    4.88  S

Time 100000. Cell 7: x=          36000	y=              0	z=              0
Using solution 7.
Using exchange 7
Using surface 7.
Using pure phase assemblage 7.

-------------------------------Phase assemblage--------------------------------

                                                      Moles in assemblage
Phase                  SI log IAP  log KT      Initial       Final       Delta

Calcite                 0   -8.48   -8.48    1.160e-01   1.156e-01  -4.375e-04
Dolomite                0  -17.09  -17.09    1.550e+00   1.550e+00   1.541e-05

------------------------------Surface composition------------------------------

Surf          
	 -5.781e-04  Surface charge, eq
	 -3.099e-03  sigma, C/m**2
	 -1.425e-02  psi, V
	  5.546e-01  -F*psi/RT
	  1.741e+00  exp(-F*psi/RT)
	  6.000e+02  specific area, m**2/g
	  1.800e+04  m**2 for   3.000e+01 g


Surf          
	  1.400e-01  moles
	                                   Mole                     Log
	Species               Moles    Fraction    Molality    Molality

	SurfOH            9.479e-02       0.677   9.479e-02      -1.023
	SurfOH2+          3.036e-02       0.217   3.036e-02      -1.518
	SurfOHAsO4-3      8.048e-03       0.057   8.048e-03      -2.094
	SurfO-            6.779e-03       0.048   6.779e-03      -2.169
	SurfHAsO4-        1.849e-05           0   1.849e-05      -4.733
	SurfH2AsO4        1.917e-07           0   1.917e-07      -6.717

-----------------------------Exchange composition------------------------------

X                5.000e-01 mol

	                               Equiv-    Equivalent      Log 
	Species             Moles      alents      Fraction     Gamma

	CaX2              1.376e-01   2.752e-01   5.503e-01    -0.164
	NaX               9.698e-02   9.698e-02   1.940e-01    -0.042
	MgX2              6.393e-02   1.279e-01   2.557e-01    -0.162

-----------------------------Solution composition------------------------------

	Elements           Molality       Moles

	As                5.535e-08   5.534e-08
	C                 7.948e-03   7.948e-03
	Ca                1.568e-04   1.568e-04
	Cl                1.383e-04   1.383e-04
	Mg                1.136e-04   1.136e-04
	Na                7.782e-03   7.782e-03
	S                 2.351e-04   2.351e-04

----------------------------Description of solution----------------------------

                                       pH  =   8.025      Charge balance
                                       pe  =  12.580      Adjusted to redox equilibrium
                        Activity of water  =   1.000
                           Ionic strength  =   8.833e-03
                       Mass of water (kg)  =   1.000e+00
                 Total alkalinity (eq/kg)  =   7.865e-03
                       Total CO2 (mol/kg)  =   7.948e-03
                      Temperature (deg C)  =  25.000
                  Electrical balance (eq)  =  -1.501e-04
 Percent error, 100*(Cat-|An|)/(Cat+|An|)  =  -0.90
                               Iterations  =  13
                                  Total H  = 1.110183e+02
                                  Total O  = 5.553036e+01

----------------------------Distribution of species----------------------------

                                                   Log       Log         Log 
   Species                 Molality    Activity  Molality  Activity     Gamma

   OH-                    1.172e-06   1.061e-06    -5.931    -5.974    -0.043
   H+                     1.028e-08   9.434e-09    -7.988    -8.025    -0.037
   H2O                    5.551e+01   9.997e-01     1.744         0         0
As               5.535e-08
   HAsO4-2                5.198e-08   3.517e-08    -7.284    -7.454    -0.170
   H2AsO4-                3.337e-09   3.026e-09    -8.477    -8.519    -0.042
   AsO4-3                 2.839e-11   1.179e-11   -10.547   -10.929    -0.382
   H3AsO4                 4.952e-15   4.962e-15   -14.305   -14.304     0.001
C(-4)            0.000e+00
   CH4                    0.000e+00   0.000e+00  -144.281  -144.280     0.001
C(4)             7.948e-03
   HCO3-                  7.693e-03   6.999e-03    -2.114    -2.155    -0.041
   CO2                    1.482e-04   1.485e-04    -3.829    -3.828     0.001
   CO3-2                  5.077e-05   3.479e-05    -4.294    -4.459    -0.164
   NaHCO3                 2.762e-05   2.767e-05    -4.559    -4.558     0.001
   CaHCO3+                9.345e-06   8.502e-06    -5.029    -5.070    -0.041
   MgHCO3+                6.368e-06   5.776e-06    -5.196    -5.238    -0.042
   CaCO3                  5.554e-06   5.565e-06    -5.255    -5.255     0.001
   NaCO3-                 5.022e-06   4.555e-06    -5.299    -5.342    -0.042
   MgCO3                  2.337e-06   2.341e-06    -5.631    -5.631     0.001
Ca               1.568e-04
   Ca+2                   1.390e-04   9.521e-05    -3.857    -4.021    -0.164
   CaHCO3+                9.345e-06   8.502e-06    -5.029    -5.070    -0.041
   CaCO3                  5.554e-06   5.565e-06    -5.255    -5.255     0.001
   CaSO4                  2.893e-06   2.899e-06    -5.539    -5.538     0.001
   CaOH+                  1.846e-09   1.674e-09    -8.734    -8.776    -0.042
   CaHSO4+                1.766e-13   1.602e-13   -12.753   -12.795    -0.042
Cl               1.383e-04
   Cl-                    1.383e-04   1.252e-04    -3.859    -3.902    -0.043
H(0)             0.000e+00
   H2                     0.000e+00   0.000e+00   -44.361   -44.361     0.001
Mg               1.136e-04
   Mg+2                   1.024e-04   7.052e-05    -3.990    -4.152    -0.162
   MgHCO3+                6.368e-06   5.776e-06    -5.196    -5.238    -0.042
   MgSO4                  2.517e-06   2.523e-06    -5.599    -5.598     0.001
   MgCO3                  2.337e-06   2.341e-06    -5.631    -5.631     0.001
   MgOH+                  2.992e-08   2.713e-08    -7.524    -7.566    -0.042
Na               7.782e-03
   Na+                    7.744e-03   7.031e-03    -2.111    -2.153    -0.042
   NaHCO3                 2.762e-05   2.767e-05    -4.559    -4.558     0.001
   NaSO4-                 5.928e-06   5.377e-06    -5.227    -5.269    -0.042
   NaCO3-                 5.022e-06   4.555e-06    -5.299    -5.342    -0.042
   NaOH                   4.912e-09   4.922e-09    -8.309    -8.308     0.001
O(0)             4.375e-04
   O2                     2.187e-04   2.192e-04    -3.660    -3.659     0.001
S(-2)            0.000e+00
   HS-                    0.000e+00   0.000e+00  -142.990  -143.033    -0.043
   H2S                    0.000e+00   0.000e+00  -144.118  -144.117     0.001
   S-2                    0.000e+00   0.000e+00  -147.760  -147.926    -0.166
S(6)             2.351e-04
   SO4-2                  2.237e-04   1.526e-04    -3.650    -3.816    -0.166
   NaSO4-                 5.928e-06   5.377e-06    -5.227    -5.269    -0.042
   CaSO4                  2.893e-06   2.899e-06    -5.539    -5.538     0.001
   MgSO4                  2.517e-06   2.523e-06    -5.599    -5.598     0.001
   HSO4-                  1.543e-10   1.400e-10    -9.812    -9.854    -0.042
   CaHSO4+                1.766e-13   1.602e-13   -12.753   -12.795    -0.042

------------------------------Saturation indices-------------------------------

	Phase               SI log IAP  log KT

	Anhydrite        -3.48   -7.84   -4.36  CaSO4
	Aragonite        -0.14   -8.48   -8.34  CaCO3
	Calcite              0   -8.48   -8.48  CaCO3
	CH4(g)         -141.42 -144.28   -2.86  CH4
	CO2(g)           -2.36   -3.83   -1.47  CO2
	Dolomite             0  -17.09  -17.09  CaMg(CO3)2
	Gypsum           -3.26   -7.84   -4.58  CaSO4:2H2O
	H2(g)           -41.21  -44.36   -3.15  H2
	H2O(g)           -1.51       0    1.51  H2O
	H2S(g)         -143.12 -144.12   -1.00  H2S
	Halite           -7.64   -6.06    1.58  NaCl
	O2(g)            -0.70   -3.66   -2.96  O2
	Sulfur         -107.79 -102.91    4.88  S

Time 100000. Cell 49: x=              0	y=          18000	z=              0
Using solution 49.
Using exchange 49
Using surface 49.
Using pure phase assemblage 49.

-------------------------------Phase assemblage--------------------------------

                                                      Moles in assemblage
Phase                  SI log IAP  log KT      Initial       Final       Delta

Calcite                 0   -8.48   -8.48    1.243e-01   1.241e-01  -2.181e-04
Dolomite                0  -17.09  -17.09    1.564e+00   1.563e+00  -3.328e-04

------------------------------Surface composition------------------------------

Surf          
	  7.019e-03  Surface charge, eq
	  3.763e-02  sigma, C/m**2
	  4.505e-02  psi, V
	 -1.753e+00  -F*psi/RT
	  1.732e-01  exp(-F*psi/RT)
	  6.000e+02  specific area, m**2/g
	  1.800e+04  m**2 for   3.000e+01 g


Surf          
	  1.400e-01  moles
	                                   Mole                     Log
	Species               Moles    Fraction    Molality    Molality

	SurfOH            9.044e-02       0.646   9.043e-02      -1.044
	SurfOH2+          3.633e-02       0.260   3.633e-02      -1.440
	SurfOHAsO4-3      8.043e-03       0.057   8.043e-03      -2.095
	SurfO-            5.157e-03       0.037   5.156e-03      -2.288
	SurfHAsO4-        2.917e-05           0   2.917e-05      -4.535
	SurfH2AsO4        3.792e-07           0   3.792e-07      -6.421

-----------------------------Exchange composition------------------------------

X                5.000e-01 mol

	                               Equiv-    Equivalent      Log 
	Species             Moles      alents      Fraction     Gamma

	NaX               2.945e-01   2.945e-01   5.889e-01    -0.108
	CaX2              7.095e-02   1.419e-01   2.838e-01    -0.412
	MgX2              3.181e-02   6.363e-02   1.273e-01    -0.394

-----------------------------Solution composition------------------------------

	Elements           Molality       Moles

	As                1.876e-09   1.876e-09
	C                 2.385e-02   2.386e-02
	Ca                1.606e-03   1.606e-03
	Cl                7.200e-02   7.201e-02
	Mg                1.138e-03   1.138e-03
	Na                1.067e-01   1.067e-01
	S                 2.836e-04   2.837e-04

----------------------------Description of solution----------------------------

                                       pH  =   6.924      Charge balance
                                       pe  =  13.683      Adjusted to redox equilibrium
                        Activity of water  =   0.997
                           Ionic strength  =   1.041e-01
                       Mass of water (kg)  =   1.000e+00
                 Total alkalinity (eq/kg)  =   1.997e-02
                       Total CO2 (mol/kg)  =   2.385e-02
                      Temperature (deg C)  =  25.000
                  Electrical balance (eq)  =   1.960e-02
 Percent error, 100*(Cat-|An|)/(Cat+|An|)  =   9.67
                               Iterations  =   4
                                  Total H  = 1.110377e+02
                                  Total O  = 5.557812e+01

----------------------------Distribution of species----------------------------

                                                   Log       Log         Log 
   Species                 Molality    Activity  Molality  Activity     Gamma

   H+                     1.444e-07   1.190e-07    -6.840    -6.924    -0.084
   OH-                    1.105e-07   8.384e-08    -6.957    -7.077    -0.120
   H2O                    5.551e+01   9.965e-01     1.744    -0.002         0
As               1.876e-09
   HAsO4-2                1.240e-09   4.571e-10    -8.907    -9.340    -0.433
   H2AsO4-                6.366e-10   4.961e-10    -9.196    -9.304    -0.108
   AsO4-3                 1.147e-13   1.215e-14   -12.941   -13.915    -0.975
   H3AsO4                 1.002e-14   1.026e-14   -13.999   -13.989     0.010
C(-4)            0.000e+00
   CH4                    0.000e+00   0.000e+00  -142.873  -142.863     0.010
C(4)             2.385e-02
   HCO3-                  1.900e-02   1.493e-02    -1.721    -1.826    -0.105
   CO2                    3.914e-03   4.009e-03    -2.407    -2.397     0.010
   NaHCO3                 6.779e-04   6.943e-04    -3.169    -3.158     0.010
   CaHCO3+                1.364e-04   1.072e-04    -3.865    -3.970    -0.105
   MgHCO3+                9.348e-05   7.285e-05    -4.029    -4.138    -0.108
   CO3-2                  1.541e-05   5.886e-06    -4.812    -5.230    -0.418
   NaCO3-                 1.163e-05   9.061e-06    -4.934    -5.043    -0.108
   CaCO3                  5.433e-06   5.565e-06    -5.265    -5.255     0.010
   MgCO3                  2.286e-06   2.341e-06    -5.641    -5.631     0.010
Ca               1.606e-03
   Ca+2                   1.455e-03   5.628e-04    -2.837    -3.250    -0.412
   CaHCO3+                1.364e-04   1.072e-04    -3.865    -3.970    -0.105
   CaSO4                  9.008e-06   9.227e-06    -5.045    -5.035     0.010
   CaCO3                  5.433e-06   5.565e-06    -5.265    -5.255     0.010
   CaOH+                  1.004e-09   7.822e-10    -8.998    -9.107    -0.108
   CaHSO4+                8.254e-12   6.432e-12   -11.083   -11.192    -0.108
Cl               7.200e-02
   Cl-                    7.200e-02   5.483e-02    -1.143    -1.261    -0.118
H(0)             0.000e+00
   H2                     0.000e+00   0.000e+00   -44.375   -44.365     0.010
Mg               1.138e-03
   Mg+2                   1.034e-03   4.169e-04    -2.986    -3.380    -0.394
   MgHCO3+                9.348e-05   7.285e-05    -4.029    -4.138    -0.108
   MgSO4                  7.840e-06   8.030e-06    -5.106    -5.095     0.010
   MgCO3                  2.286e-06   2.341e-06    -5.641    -5.631     0.010
   MgOH+                  1.627e-08   1.268e-08    -7.789    -7.897    -0.108
Na               1.067e-01
   Na+                    1.059e-01   8.268e-02    -0.975    -1.083    -0.108
   NaHCO3                 6.779e-04   6.943e-04    -3.169    -3.158     0.010
   NaSO4-                 4.369e-05   3.405e-05    -4.360    -4.468    -0.108
   NaCO3-                 1.163e-05   9.061e-06    -4.934    -5.043    -0.108
   NaOH                   4.466e-09   4.575e-09    -8.350    -8.340     0.010
O(0)             4.336e-04
   O2                     2.168e-04   2.221e-04    -3.664    -3.654     0.010
S(-2)            0.000e+00
   HS-                    0.000e+00   0.000e+00  -142.093  -142.213    -0.120
   H2S                    0.000e+00   0.000e+00  -142.206  -142.196     0.010
   S-2                    0.000e+00   0.000e+00  -147.777  -148.206    -0.430
S(6)             2.836e-04
   SO4-2                  2.231e-04   8.216e-05    -3.651    -4.085    -0.434
   NaSO4-                 4.369e-05   3.405e-05    -4.360    -4.468    -0.108
   CaSO4                  9.008e-06   9.227e-06    -5.045    -5.035     0.010
   MgSO4                  7.840e-06   8.030e-06    -5.106    -5.095     0.010
   HSO4-                  1.220e-09   9.506e-10    -8.914    -9.022    -0.108
   CaHSO4+                8.254e-12   6.432e-12   -11.083   -11.192    -0.108

------------------------------Saturation indices-------------------------------

	Phase               SI log IAP  log KT

	Anhydrite        -2.97   -7.33   -4.36  CaSO4
	Aragonite        -0.14   -8.48   -8.34  CaCO3
	Calcite              0   -8.48   -8.48  CaCO3
	CH4(g)         -140.00 -142.86   -2.86  CH4
	CO2(g)           -0.93   -2.40   -1.47  CO2
	Dolomite             0  -17.09  -17.09  CaMg(CO3)2
	Gypsum           -2.76   -7.34   -4.58  CaSO4:2H2O
	H2(g)           -41.21  -44.36   -3.15  H2
	H2O(g)           -1.51       0    1.51  H2O
	H2S(g)         -141.20 -142.20   -1.00  H2S
	Halite           -3.93   -2.34    1.58  NaCl
	O2(g)            -0.69   -3.65   -2.96  O2
	Sulfur         -105.86 -100.98    4.88  S

Time 100000. Cell 52: x=          18000	y=          18000	z=              0
Using solution 52.
Using exchange 52
Using surface 52.
Using pure phase assemblage 52.

-------------------------------Phase assemblage--------------------------------

                                                      Moles in assemblage
Phase                  SI log IAP  log KT      Initial       Final       Delta

Calcite                 0   -8.48   -8.48    1.378e-01   1.376e-01  -1.098e-04
Dolomite                0  -17.09  -17.09    1.549e+00   1.549e+00  -3.305e-05

------------------------------Surface composition------------------------------

Surf          
	 -2.618e-03  Surface charge, eq
	 -1.404e-02  sigma, C/m**2
	 -5.030e-02  psi, V
	  1.958e+00  -F*psi/RT
	  7.084e+00  exp(-F*psi/RT)
	  6.000e+02  specific area, m**2/g
	  1.800e+04  m**2 for   3.000e+01 g


Surf          
	  1.400e-01  moles
	                                   Mole                     Log
	Species               Moles    Fraction    Molality    Molality

	SurfOH            9.579e-02       0.684   9.579e-02      -1.019
	SurfOH2+          2.885e-02       0.206   2.885e-02      -1.540
	SurfOHAsO4-3      8.055e-03       0.058   8.056e-03      -2.094
	SurfO-            7.286e-03       0.052   7.286e-03      -2.137
	SurfHAsO4-        1.636e-05           0   1.636e-05      -4.786
	SurfH2AsO4        1.595e-07           0   1.595e-07      -6.797

-----------------------------Exchange composition------------------------------

X                5.000e-01 mol

	                               Equiv-    Equivalent      Log 
	Species             Moles      alents      Fraction     Gamma

	NaX               2.281e-01   2.281e-01   4.562e-01    -0.046
	CaX2              9.286e-02   1.857e-01   3.714e-01    -0.180
	MgX2              4.310e-02   8.620e-02   1.724e-01    -0.177

-----------------------------Solution composition------------------------------

	Elements           Molality       Moles

	As                8.467e-07   8.466e-07
	C                 8.732e-03   8.732e-03
	Ca                3.924e-05   3.924e-05
	Cl                9.096e-04   9.095e-04
	Mg                2.711e-05   2.711e-05
	Na                1.053e-02   1.053e-02
	S                 2.356e-04   2.356e-04

----------------------------Description of solution----------------------------

                                       pH  =   8.661      Charge balance
                                       pe  =  11.944      Adjusted to redox equilibrium
                        Activity of water  =   1.000
                           Ionic strength  =   1.094e-02
                       Mass of water (kg)  =   1.000e+00
                 Total alkalinity (eq/kg)  =   8.986e-03
                       Total CO2 (mol/kg)  =   8.732e-03
                      Temperature (deg C)  =  25.000
                  Electrical balance (eq)  =   2.959e-04
 Percent error, 100*(Cat-|An|)/(Cat+|An|)  =   1.42
                               Iterations  =  10
                                  Total H  = 1.110188e+02
                                  Total O  = 5.553272e+01

----------------------------Distribution of species----------------------------

                                                   Log       Log         Log 
   Species                 Molality    Activity  Molality  Activity     Gamma

   OH-                    5.121e-06   4.590e-06    -5.291    -5.338    -0.048
   H+                     2.394e-09   2.180e-09    -8.621    -8.661    -0.041
   H2O                    5.551e+01   9.996e-01     1.744         0         0
As               8.467e-07
   HAsO4-2                8.326e-07   5.423e-07    -6.080    -6.266    -0.186
   H2AsO4-                1.200e-08   1.078e-08    -7.921    -7.967    -0.047
   AsO4-3                 2.064e-09   7.865e-10    -8.685    -9.104    -0.419
   H3AsO4                 4.075e-15   4.085e-15   -14.390   -14.389     0.001
C(-4)            0.000e+00
   CH4                    0.000e+00   0.000e+00  -144.885  -144.884     0.001
C(4)             8.732e-03
   HCO3-                  8.366e-03   7.544e-03    -2.077    -2.122    -0.045
   CO3-2                  2.455e-04   1.623e-04    -3.610    -3.790    -0.180
   NaHCO3                 3.978e-05   3.988e-05    -4.400    -4.399     0.001
   CO2                    3.690e-05   3.699e-05    -4.433    -4.432     0.001
   NaCO3-                 3.162e-05   2.840e-05    -4.500    -4.547    -0.047
   CaCO3                  5.551e-06   5.565e-06    -5.256    -5.255     0.001
   MgCO3                  2.336e-06   2.341e-06    -5.632    -5.631     0.001
   CaHCO3+                2.179e-06   1.965e-06    -5.662    -5.707    -0.045
   MgHCO3+                1.486e-06   1.335e-06    -5.828    -5.875    -0.047
Ca               3.924e-05
   Ca+2                   3.090e-05   2.041e-05    -4.510    -4.690    -0.180
   CaCO3                  5.551e-06   5.565e-06    -5.256    -5.255     0.001
   CaHCO3+                2.179e-06   1.965e-06    -5.662    -5.707    -0.045
   CaSO4                  6.052e-07   6.067e-07    -6.218    -6.217     0.001
   CaOH+                  1.729e-09   1.553e-09    -8.762    -8.809    -0.047
   CaHSO4+                8.627e-15   7.750e-15   -14.064   -14.111    -0.047
Cl               9.096e-04
   Cl-                    9.096e-04   8.155e-04    -3.041    -3.089    -0.047
H(0)             0.000e+00
   H2                     0.000e+00   0.000e+00   -44.362   -44.361     0.001
Mg               2.711e-05
   Mg+2                   2.273e-05   1.512e-05    -4.643    -4.820    -0.177
   MgCO3                  2.336e-06   2.341e-06    -5.632    -5.631     0.001
   MgHCO3+                1.486e-06   1.335e-06    -5.828    -5.875    -0.047
   MgSO4                  5.267e-07   5.280e-07    -6.278    -6.277     0.001
   MgOH+                  2.802e-08   2.517e-08    -7.553    -7.599    -0.047
Na               1.053e-02
   Na+                    1.045e-02   9.401e-03    -1.981    -2.027    -0.046
   NaHCO3                 3.978e-05   3.988e-05    -4.400    -4.399     0.001
   NaCO3-                 3.162e-05   2.840e-05    -4.500    -4.547    -0.047
   NaSO4-                 7.812e-06   7.018e-06    -5.107    -5.154    -0.047
   NaOH                   2.840e-08   2.848e-08    -7.547    -7.546     0.001
O(0)             4.374e-04
   O2                     2.187e-04   2.193e-04    -3.660    -3.659     0.001
S(-2)            0.000e+00
   HS-                    0.000e+00   0.000e+00  -143.633  -143.680    -0.048
   H2S                    0.000e+00   0.000e+00  -145.401  -145.400     0.001
   S-2                    0.000e+00   0.000e+00  -147.755  -147.937    -0.182
S(6)             2.356e-04
   SO4-2                  2.267e-04   1.490e-04    -3.645    -3.827    -0.182
   NaSO4-                 7.812e-06   7.018e-06    -5.107    -5.154    -0.047
   CaSO4                  6.052e-07   6.067e-07    -6.218    -6.217     0.001
   MgSO4                  5.267e-07   5.280e-07    -6.278    -6.277     0.001
   HSO4-                  3.515e-11   3.158e-11   -10.454   -10.501    -0.047
   CaHSO4+                8.627e-15   7.750e-15   -14.064   -14.111    -0.047

------------------------------Saturation indices-------------------------------

	Phase               SI log IAP  log KT

	Anhydrite        -4.16   -8.52   -4.36  CaSO4
	Aragonite        -0.14   -8.48   -8.34  CaCO3
	Calcite              0   -8.48   -8.48  CaCO3
	CH4(g)         -142.02 -144.88   -2.86  CH4
	CO2(g)           -2.96   -4.43   -1.47  CO2
	Dolomite             0  -17.09  -17.09  CaMg(CO3)2
	Gypsum           -3.94   -8.52   -4.58  CaSO4:2H2O
	H2(g)           -41.21  -44.36   -3.15  H2
	H2O(g)           -1.51       0    1.51  H2O
	H2S(g)         -144.40 -145.40   -1.00  H2S
	Halite           -6.70   -5.12    1.58  NaCl
	O2(g)            -0.70   -3.66   -2.96  O2
	Sulfur         -109.07 -104.19    4.88  S

Time 100000. Cell 55: x=          36000	y=          18000	z=              0
Using solution 55.
Using exchange 55
Using surface 55.
Using pure phase assemblage 55.

-------------------------------Phase assemblage--------------------------------

                                                      Moles in assemblage
Phase                  SI log IAP  log KT      Initial       Final       Delta

Calcite                 0   -8.48   -8.48    1.080e-01   1.076e-01  -4.254e-04
Dolomite                0  -17.09  -17.09    1.552e+00   1.553e+00   4.492e-05

------------------------------Surface composition------------------------------

Surf          
	  3.061e-04  Surface charge, eq
	  1.641e-03  sigma, C/m**2
	  7.674e-03  psi, V
	 -2.987e-01  -F*psi/RT
	  7.418e-01  exp(-F*psi/RT)
	  6.000e+02  specific area, m**2/g
	  1.800e+04  m**2 for   3.000e+01 g


Surf          
	  1.400e-01  moles
	                                   Mole                     Log
	Species               Moles    Fraction    Molality    Molality

	SurfOH            9.433e-02       0.674   9.433e-02      -1.025
	SurfOH2+          3.104e-02       0.222   3.104e-02      -1.508
	SurfOHAsO4-3      8.049e-03       0.057   8.049e-03      -2.094
	SurfO-            6.567e-03       0.047   6.567e-03      -2.183
	SurfHAsO4-        1.951e-05           0   1.951e-05      -4.710
	SurfH2AsO4        2.078e-07           0   2.078e-07      -6.682

-----------------------------Exchange composition------------------------------

X                5.000e-01 mol

	                               Equiv-    Equivalent      Log 
	Species             Moles      alents      Fraction     Gamma

	CaX2              1.523e-01   3.046e-01   6.091e-01    -0.163
	MgX2              7.077e-02   1.415e-01   2.831e-01    -0.161
	NaX               5.390e-02   5.390e-02   1.078e-01    -0.042

-----------------------------Solution composition------------------------------

	Elements           Molality       Moles

	As                1.122e-08   1.122e-08
	C                 7.728e-03   7.728e-03
	Ca                3.874e-04   3.874e-04
	Cl                1.357e-04   1.357e-04
	Mg                2.833e-04   2.833e-04
	Na                6.540e-03   6.539e-03
	S                 2.351e-04   2.351e-04

----------------------------Description of solution----------------------------

                                       pH  =   7.643      Charge balance
                                       pe  =  12.962      Adjusted to redox equilibrium
                        Activity of water  =   1.000
                           Ionic strength  =   8.692e-03
                       Mass of water (kg)  =   1.000e+00
                 Total alkalinity (eq/kg)  =   7.419e-03
                       Total CO2 (mol/kg)  =   7.728e-03
                      Temperature (deg C)  =  25.000
                  Electrical balance (eq)  =  -1.438e-04
 Percent error, 100*(Cat-|An|)/(Cat+|An|)  =  -0.92
                               Iterations  =  11
                                  Total H  = 1.110183e+02
                                  Total O  = 5.552971e+01

----------------------------Distribution of species----------------------------

                                                   Log       Log         Log 
   Species                 Molality    Activity  Molality  Activity     Gamma

   OH-                    4.856e-07   4.399e-07    -6.314    -6.357    -0.043
   H+                     2.479e-08   2.275e-08    -7.606    -7.643    -0.037
   H2O                    5.551e+01   9.997e-01     1.744         0         0
As               1.122e-08
   HAsO4-2                9.712e-09   6.590e-09    -8.013    -8.181    -0.168
   H2AsO4-                1.507e-09   1.367e-09    -8.822    -8.864    -0.042
   AsO4-3                 2.192e-12   9.160e-13   -11.659   -12.038    -0.379
   H3AsO4                 5.395e-15   5.406e-15   -14.268   -14.267     0.001
C(-4)            0.000e+00
   CH4                    0.000e+00   0.000e+00  -143.921  -143.920     0.001
C(4)             7.728e-03
   HCO3-                  7.299e-03   6.646e-03    -2.137    -2.177    -0.041
   CO2                    3.394e-04   3.400e-04    -3.469    -3.468     0.001
   CaHCO3+                2.252e-05   2.050e-05    -4.647    -4.688    -0.041
   NaHCO3                 2.206e-05   2.211e-05    -4.656    -4.655     0.001
   CO3-2                  1.994e-05   1.370e-05    -4.700    -4.863    -0.163
   MgHCO3+                1.535e-05   1.393e-05    -4.814    -4.856    -0.042
   CaCO3                  5.554e-06   5.565e-06    -5.255    -5.255     0.001
   MgCO3                  2.337e-06   2.341e-06    -5.631    -5.631     0.001
   NaCO3-                 1.663e-06   1.509e-06    -5.779    -5.821    -0.042
Ca               3.874e-04
   Ca+2                   3.522e-04   2.418e-04    -3.453    -3.617    -0.163
   CaHCO3+                2.252e-05   2.050e-05    -4.647    -4.688    -0.041
   CaSO4                  7.141e-06   7.155e-06    -5.146    -5.145     0.001
   CaCO3                  5.554e-06   5.565e-06    -5.255    -5.255     0.001
   CaOH+                  1.943e-09   1.763e-09    -8.712    -8.754    -0.042
   CaHSO4+                1.051e-12   9.536e-13   -11.979   -12.021    -0.042
Cl               1.357e-04
   Cl-                    1.357e-04   1.230e-04    -3.867    -3.910    -0.043
H(0)             0.000e+00
   H2                     0.000e+00   0.000e+00   -44.361   -44.361     0.001
Mg               2.833e-04
   Mg+2                   2.594e-04   1.791e-04    -3.586    -3.747    -0.161
   MgHCO3+                1.535e-05   1.393e-05    -4.814    -4.856    -0.042
   MgSO4                  6.214e-06   6.227e-06    -5.207    -5.206     0.001
   MgCO3                  2.337e-06   2.341e-06    -5.631    -5.631     0.001
   MgOH+                  3.149e-08   2.858e-08    -7.502    -7.544    -0.042
Na               6.540e-03
   Na+                    6.511e-03   5.916e-03    -2.186    -2.228    -0.042
   NaHCO3                 2.206e-05   2.211e-05    -4.656    -4.655     0.001
   NaSO4-                 4.844e-06   4.397e-06    -5.315    -5.357    -0.042
   NaCO3-                 1.663e-06   1.509e-06    -5.779    -5.821    -0.042
   NaOH                   1.714e-09   1.717e-09    -8.766    -8.765     0.001
O(0)             4.375e-04
   O2                     2.187e-04   2.192e-04    -3.660    -3.659     0.001
S(-2)            0.000e+00
   HS-                    0.000e+00   0.000e+00  -142.621  -142.663    -0.043
   H2S                    0.000e+00   0.000e+00  -143.366  -143.365     0.001
   S-2                    0.000e+00   0.000e+00  -147.774  -147.938    -0.165
S(6)             2.351e-04
   SO4-2                  2.169e-04   1.483e-04    -3.664    -3.829    -0.165
   CaSO4                  7.141e-06   7.155e-06    -5.146    -5.145     0.001
   MgSO4                  6.214e-06   6.227e-06    -5.207    -5.206     0.001
   NaSO4-                 4.844e-06   4.397e-06    -5.315    -5.357    -0.042
   HSO4-                  3.614e-10   3.280e-10    -9.442    -9.484    -0.042
   CaHSO4+                1.051e-12   9.536e-13   -11.979   -12.021    -0.042

------------------------------Saturation indices-------------------------------

	Phase               SI log IAP  log KT

	Anhydrite        -3.08   -7.45   -4.36  CaSO4
	Aragonite        -0.14   -8.48   -8.34  CaCO3
	Calcite              0   -8.48   -8.48  CaCO3
	CH4(g)         -141.06 -143.92   -2.86  CH4
	CO2(g)           -2.00   -3.47   -1.47  CO2
	Dolomite             0  -17.09  -17.09  CaMg(CO3)2
	Gypsum           -2.86   -7.45   -4.58  CaSO4:2H2O
	H2(g)           -41.21  -44.36   -3.15  H2
	H2O(g)           -1.51       0    1.51  H2O
	H2S(g)         -142.37 -143.36   -1.00  H2S
	Halite           -7.72   -6.14    1.58  NaCl
	O2(g)            -0.70   -3.66   -2.96  O2
	Sulfur         -107.04 -102.15    4.88  S

Time 100000. Cell 81: x=              0	y=          30000	z=              0
Using solution 81.
Using exchange 81
Using surface 81.
Using pure phase assemblage 81.

-------------------------------Phase assemblage--------------------------------

                                                      Moles in assemblage
Phase                  SI log IAP  log KT      Initial       Final       Delta

Calcite                 0   -8.48   -8.48    1.261e-01   1.258e-01  -2.229e-04
Dolomite                0  -17.09  -17.09    1.563e+00   1.563e+00  -3.407e-04

------------------------------Surface composition------------------------------

Surf          
	  7.980e-03  Surface charge, eq
	  4.278e-02  sigma, C/m**2
	  4.790e-02  psi, V
	 -1.865e+00  -F*psi/RT
	  1.550e-01  exp(-F*psi/RT)
	  6.000e+02  specific area, m**2/g
	  1.800e+04  m**2 for   3.000e+01 g


Surf          
	  1.400e-01  moles
	                                   Mole                     Log
	Species               Moles    Fraction    Molality    Molality

	SurfOH            8.983e-02       0.642   8.982e-02      -1.047
	SurfOH2+          3.712e-02       0.265   3.711e-02      -1.430
	SurfOHAsO4-3      8.042e-03       0.057   8.041e-03      -2.095
	SurfO-            4.981e-03       0.036   4.980e-03      -2.303
	SurfHAsO4-        3.085e-05           0   3.085e-05      -4.511
	SurfH2AsO4        4.125e-07           0   4.125e-07      -6.385

-----------------------------Exchange composition------------------------------

X                5.000e-01 mol

	                               Equiv-    Equivalent      Log 
	Species             Moles      alents      Fraction     Gamma

	NaX               2.952e-01   2.952e-01   5.904e-01    -0.111
	CaX2              7.078e-02   1.416e-01   2.831e-01    -0.425
	MgX2              3.164e-02   6.327e-02   1.265e-01    -0.406

-----------------------------Solution composition------------------------------

	Elements           Molality       Moles

	As                1.669e-09   1.669e-09
[...]
Ca               1.010e-03
   Ca+2                   9.338e-04   6.391e-04    -3.030    -3.194    -0.165
   CaHCO3+                5.331e-05   4.850e-05    -4.273    -4.314    -0.041
   CaSO4                  1.736e-05   1.739e-05    -4.761    -4.760     0.001
   CaCO3                  5.554e-06   5.565e-06    -5.255    -5.255     0.001
   CaOH+                  2.173e-09   1.970e-09    -8.663    -8.705    -0.042
   CaHSO4+                6.046e-12   5.483e-12   -11.219   -11.261    -0.042
Cl               1.337e-04
   Cl-                    1.337e-04   1.211e-04    -3.874    -3.917    -0.043
H(0)             0.000e+00
   H2                     0.000e+00   0.000e+00   -44.361   -44.361     0.001
Mg               7.415e-04
   Mg+2                   6.877e-04   4.734e-04    -3.163    -3.325    -0.162
   MgHCO3+                3.633e-05   3.295e-05    -4.440    -4.482    -0.042
   MgSO4                  1.510e-05   1.513e-05    -4.821    -4.820     0.001
   MgCO3                  2.337e-06   2.341e-06    -5.631    -5.631     0.001
   MgOH+                  3.521e-08   3.193e-08    -7.453    -7.496    -0.042
Na               3.666e-03
   Na+                    3.652e-03   3.316e-03    -2.437    -2.479    -0.042
   NaHCO3                 1.107e-05   1.109e-05    -4.956    -4.955     0.001
   NaSO4-                 2.499e-06   2.266e-06    -5.602    -5.645    -0.042
   NaCO3-                 3.529e-07   3.200e-07    -6.452    -6.495    -0.042
   NaOH                   4.061e-10   4.070e-10    -9.391    -9.390     0.001
O(0)             4.375e-04
   O2                     2.187e-04   2.192e-04    -3.660    -3.659     0.001
S(-2)            0.000e+00
   HS-                    0.000e+00   0.000e+00  -142.283  -142.326    -0.043
   H2S                    0.000e+00   0.000e+00  -142.654  -142.653     0.001
   S-2                    0.000e+00   0.000e+00  -147.809  -147.975    -0.166
S(6)             2.351e-04
   SO4-2                  2.001e-04   1.364e-04    -3.699    -3.865    -0.167
   CaSO4                  1.736e-05   1.739e-05    -4.761    -4.760     0.001
   MgSO4                  1.510e-05   1.513e-05    -4.821    -4.820     0.001
   NaSO4-                 2.499e-06   2.266e-06    -5.602    -5.645    -0.042
   HSO4-                  7.869e-10   7.136e-10    -9.104    -9.147    -0.042
   CaHSO4+                6.046e-12   5.483e-12   -11.219   -11.261    -0.042

------------------------------Saturation indices-------------------------------

	Phase               SI log IAP  log KT

	Anhydrite        -2.70   -7.06   -4.36  CaSO4
	Aragonite        -0.14   -8.48   -8.34  CaCO3
	Calcite              0   -8.48   -8.48  CaCO3
	CH4(g)         -140.73 -143.59   -2.86  CH4
	CO2(g)           -1.67   -3.14   -1.47  CO2
	Dolomite             0  -17.09  -17.09  CaMg(CO3)2
	Gypsum           -2.48   -7.06   -4.58  CaSO4:2H2O
	H2(g)           -41.21  -44.36   -3.15  H2
	H2O(g)           -1.51       0    1.51  H2O
	H2S(g)         -141.66 -142.65   -1.00  H2S
	Halite           -7.98   -6.40    1.58  NaCl
	O2(g)            -0.70   -3.66   -2.96  O2
	Sulfur         -106.32 -101.44    4.88  S

Time 100000. Cell 637: x=          72000	y=          18000	z=            400
Cell is dry.
Time 100000. Cell 640: x=          90000	y=          18000	z=            400
Cell is dry.
Time 100000. Cell 657: x=              0	y=          30000	z=            400
Cell is dry.
Time 100000. Cell 660: x=          18000	y=          30000	z=            400
Cell is dry.
Time 100000. Cell 663: x=          36000	y=          30000	z=            400
Using solution 663.
Using exchange 663
Using surface 663.
Using pure phase assemblage 663.

-------------------------------Phase assemblage--------------------------------

                                                      Moles in assemblage
Phase                  SI log IAP  log KT      Initial       Final       Delta

Calcite                 0   -8.48   -8.48    1.005e-01   1.002e-01  -3.037e-04
Dolomite                0  -17.09  -17.09    1.556e+00   1.556e+00   5.864e-05

------------------------------Surface composition------------------------------

Surf          
	  9.304e-04  Surface charge, eq
	  4.988e-03  sigma, C/m**2
	  2.261e-02  psi, V
	 -8.800e-01  -F*psi/RT
	  4.148e-01  exp(-F*psi/RT)
	  6.000e+02  specific area, m**2/g
	  1.800e+04  m**2 for   3.000e+01 g


Surf          
	  1.400e-01  moles
	                                   Mole                     Log
	Species               Moles    Fraction    Molality    Molality

	SurfOH            9.399e-02       0.671   9.399e-02      -1.027
	SurfOH2+          3.152e-02       0.225   3.152e-02      -1.501
	SurfOHAsO4-3      8.049e-03       0.057   8.049e-03      -2.094
	SurfO-            6.421e-03       0.046   6.421e-03      -2.192
	SurfHAsO4-        2.027e-05           0   2.027e-05      -4.693
	SurfH2AsO4        2.199e-07           0   2.199e-07      -6.658

-----------------------------Exchange composition------------------------------

X                5.000e-01 mol

	                               Equiv-    Equivalent      Log 
	Species             Moles      alents      Fraction     Gamma

	CaX2              1.607e-01   3.214e-01   6.427e-01    -0.164
	MgX2              7.467e-02   1.493e-01   2.987e-01    -0.161
	NaX               2.930e-02   2.930e-02   5.859e-02    -0.042

-----------------------------Solution composition------------------------------

	Elements           Molality       Moles

	As                3.988e-09   3.988e-09
	C                 7.501e-03   7.501e-03
	Ca                7.476e-04   7.476e-04
	Cl                1.343e-04   1.343e-04
	Mg                5.484e-04   5.484e-04
	Na                4.833e-03   4.833e-03
	S                 2.351e-04   2.351e-04

----------------------------Description of solution----------------------------

                                       pH  =   7.382      Charge balance
                                       pe  =  13.223      Adjusted to redox equilibrium
                        Activity of water  =   1.000
                           Ionic strength  =   8.744e-03
                       Mass of water (kg)  =   1.000e+00
                 Total alkalinity (eq/kg)  =   6.943e-03
                       Total CO2 (mol/kg)  =   7.501e-03
                      Temperature (deg C)  =  25.000
                  Electrical balance (eq)  =  -1.215e-04
 Percent error, 100*(Cat-|An|)/(Cat+|An|)  =  -0.83
                               Iterations  =   6
                                  Total H  = 1.110183e+02
                                  Total O  = 5.552902e+01

----------------------------Distribution of species----------------------------

                                                   Log       Log         Log 
   Species                 Molality    Activity  Molality  Activity     Gamma

   OH-                    2.665e-07   2.414e-07    -6.574    -6.617    -0.043
   H+                     4.518e-08   4.146e-08    -7.345    -7.382    -0.037
   H2O                    5.551e+01   9.998e-01     1.744         0         0
As               3.988e-09
   HAsO4-2                3.109e-09   2.108e-09    -8.507    -8.676    -0.169
   H2AsO4-                8.783e-10   7.970e-10    -9.056    -9.099    -0.042
   AsO4-3                 3.856e-13   1.608e-13   -12.414   -12.794    -0.380
   H3AsO4                 5.731e-15   5.742e-15   -14.242   -14.241     0.001
C(-4)            0.000e+00
   CH4                    0.000e+00   0.000e+00  -143.690  -143.689     0.001
C(4)             7.501e-03
   HCO3-                  6.821e-03   6.208e-03    -2.166    -2.207    -0.041
   CO2                    5.777e-04   5.789e-04    -3.238    -3.237     0.001
   CaHCO3+                4.105e-05   3.737e-05    -4.387    -4.428    -0.041
   MgHCO3+                2.797e-05   2.538e-05    -4.553    -4.595    -0.042
   NaHCO3                 1.524e-05   1.527e-05    -4.817    -4.816     0.001
   CO3-2                  1.023e-05   7.022e-06    -4.990    -5.154    -0.163
   CaCO3                  5.554e-06   5.565e-06    -5.255    -5.255     0.001
   MgCO3                  2.337e-06   2.341e-06    -5.631    -5.631     0.001
   NaCO3-                 6.302e-07   5.718e-07    -6.201    -6.243    -0.042
Ca               7.476e-04
   Ca+2                   6.877e-04   4.717e-04    -3.163    -3.326    -0.164
   CaHCO3+                4.105e-05   3.737e-05    -4.387    -4.428    -0.041
   CaSO4                  1.327e-05   1.330e-05    -4.877    -4.876     0.001
   CaCO3                  5.554e-06   5.565e-06    -5.255    -5.255     0.001
   CaOH+                  2.081e-09   1.888e-09    -8.682    -8.724    -0.042
   CaHSO4+                3.560e-12   3.230e-12   -11.449   -11.491    -0.042
Cl               1.343e-04
   Cl-                    1.343e-04   1.216e-04    -3.872    -3.915    -0.043
H(0)             0.000e+00
   H2                     0.000e+00   0.000e+00   -44.361   -44.361     0.001
Mg               5.484e-04
   Mg+2                   5.065e-04   3.494e-04    -3.295    -3.457    -0.161
   MgHCO3+                2.797e-05   2.538e-05    -4.553    -4.595    -0.042
   MgSO4                  1.155e-05   1.157e-05    -4.937    -4.937     0.001
   MgCO3                  2.337e-06   2.341e-06    -5.631    -5.631     0.001
   MgOH+                  3.372e-08   3.059e-08    -7.472    -7.514    -0.042
Na               4.833e-03
   Na+                    4.814e-03   4.373e-03    -2.317    -2.359    -0.042
   NaHCO3                 1.524e-05   1.527e-05    -4.817    -4.816     0.001
   NaSO4-                 3.413e-06   3.097e-06    -5.467    -5.509    -0.042
   NaCO3-                 6.302e-07   5.718e-07    -6.201    -6.243    -0.042
   NaOH                   6.953e-10   6.967e-10    -9.158    -9.157     0.001
O(0)             4.375e-04
   O2                     2.187e-04   2.192e-04    -3.660    -3.659     0.001
S(-2)            0.000e+00
   HS-                    0.000e+00   0.000e+00  -142.381  -142.424    -0.043
   H2S                    0.000e+00   0.000e+00  -142.865  -142.865     0.001
   S-2                    0.000e+00   0.000e+00  -147.794  -147.959    -0.165
S(6)             2.351e-04
   SO4-2                  2.068e-04   1.413e-04    -3.684    -3.850    -0.165
   CaSO4                  1.327e-05   1.330e-05    -4.877    -4.876     0.001
   MgSO4                  1.155e-05   1.157e-05    -4.937    -4.937     0.001
   NaSO4-                 3.413e-06   3.097e-06    -5.467    -5.509    -0.042
   HSO4-                  6.277e-10   5.696e-10    -9.202    -9.244    -0.042
   CaHSO4+                3.560e-12   3.230e-12   -11.449   -11.491    -0.042

------------------------------Saturation indices-------------------------------

	Phase               SI log IAP  log KT

	Anhydrite        -2.82   -7.18   -4.36  CaSO4
	Aragonite        -0.14   -8.48   -8.34  CaCO3
	Calcite              0   -8.48   -8.48  CaCO3
	CH4(g)         -140.83 -143.69   -2.86  CH4
	CO2(g)           -1.77   -3.24   -1.47  CO2
	Dolomite             0  -17.09  -17.09  CaMg(CO3)2
	Gypsum           -2.60   -7.18   -4.58  CaSO4:2H2O
	H2(g)           -41.21  -44.36   -3.15  H2
	H2O(g)           -1.51       0    1.51  H2O
	H2S(g)         -141.87 -142.86   -1.00  H2S
	Halite           -7.86   -6.27    1.58  NaCl
	O2(g)            -0.70   -3.66   -2.96  O2
	Sulfur         -106.54 -101.65    4.88  S

Time 100000. Cell 666: x=          54000	y=          30000	z=            400
Using solution 666.
Using exchange 666
Using surface 666.
Using pure phase assemblage 666.

-------------------------------Phase assemblage--------------------------------

                                                      Moles in assemblage
Phase                  SI log IAP  log KT      Initial       Final       Delta

Calcite                 0   -8.48   -8.48    9.314e-02   9.288e-02  -2.621e-04
Dolomite                0  -17.09  -17.09    1.558e+00   1.558e+00   5.607e-05

------------------------------Surface composition------------------------------

Surf          
	  1.182e-03  Surface charge, eq
	  6.336e-03  sigma, C/m**2
	  2.807e-02  psi, V
	 -1.093e+00  -F*psi/RT
	  3.353e-01  exp(-F*psi/RT)
	  6.000e+02  specific area, m**2/g
	  1.800e+04  m**2 for   3.000e+01 g


Surf          
	  1.400e-01  moles
	                                   Mole                     Log
	Species               Moles    Fraction    Molality    Molality

	SurfOH            9.386e-02       0.670   9.386e-02      -1.028
	SurfOH2+          3.171e-02       0.226   3.171e-02      -1.499
	SurfOHAsO4-3      8.047e-03       0.057   8.047e-03      -2.094
	SurfO-            6.365e-03       0.045   6.365e-03      -2.196
	SurfHAsO4-        2.057e-05           0   2.057e-05      -4.687
	SurfH2AsO4        2.248e-07           0   2.248e-07      -6.648

-----------------------------Exchange composition------------------------------

X                5.000e-01 mol

	                               Equiv-    Equivalent      Log 
	Species             Moles      alents      Fraction     Gamma

	CaX2              1.636e-01   3.272e-01   6.543e-01    -0.164
	MgX2              7.601e-02   1.520e-01   3.041e-01    -0.162
	NaX               2.081e-02   2.081e-02   4.162e-02    -0.042

-----------------------------Solution composition------------------------------

	Elements           Molality       Moles

	As                2.775e-09   2.775e-09
	C                 7.394e-03   7.394e-03
	Ca                9.631e-04   9.631e-04
	Cl                1.337e-04   1.337e-04
	Mg                7.070e-04   7.070e-04
	Na                3.870e-03   3.870e-03
	S                 2.351e-04   2.351e-04

----------------------------Description of solution----------------------------

                                       pH  =   7.287      Charge balance
                                       pe  =  13.319      Adjusted to redox equilibrium
                        Activity of water  =   1.000
                           Ionic strength  =   8.840e-03
                       Mass of water (kg)  =   1.000e+00
                 Total alkalinity (eq/kg)  =   6.715e-03
                       Total CO2 (mol/kg)  =   7.394e-03
                      Temperature (deg C)  =  25.000
                  Electrical balance (eq)  =  -1.092e-04
 Percent error, 100*(Cat-|An|)/(Cat+|An|)  =  -0.77
                               Iterations  =   6
                                  Total H  = 1.110184e+02
                                  Total O  = 5.552870e+01

----------------------------Distribution of species----------------------------

                                                   Log       Log         Log 
   Species                 Molality    Activity  Molality  Activity     Gamma

   OH-                    2.140e-07   1.937e-07    -6.670    -6.713    -0.043
   H+                     5.633e-08   5.167e-08    -7.249    -7.287    -0.037
   H2O                    5.551e+01   9.998e-01     1.744         0         0
As               2.775e-09
   HAsO4-2                2.053e-09   1.389e-09    -8.688    -8.857    -0.170
   H2AsO4-                7.218e-10   6.546e-10    -9.142    -9.184    -0.042
   AsO4-3                 2.048e-13   8.501e-14   -12.689   -13.071    -0.382
   H3AsO4                 5.867e-15   5.879e-15   -14.232   -14.231     0.001
C(-4)            0.000e+00
   CH4                    0.000e+00   0.000e+00  -143.610  -143.609     0.001
C(4)             7.394e-03
   HCO3-                  6.585e-03   5.991e-03    -2.181    -2.222    -0.041
   CO2                    6.948e-04   6.962e-04    -3.158    -3.157     0.001
   CaHCO3+                5.118e-05   4.657e-05    -4.291    -4.332    -0.041
   MgHCO3+                3.488e-05   3.164e-05    -4.457    -4.500    -0.042
   NaHCO3                 1.177e-05   1.179e-05    -4.929    -4.928     0.001
   CO3-2                  7.935e-06   5.437e-06    -5.100    -5.265    -0.164
   CaCO3                  5.554e-06   5.565e-06    -5.255    -5.255     0.001
   MgCO3                  2.337e-06   2.341e-06    -5.631    -5.631     0.001
   NaCO3-                 3.907e-07   3.544e-07    -6.408    -6.451    -0.042
Ca               9.631e-04
   Ca+2                   8.897e-04   6.092e-04    -3.051    -3.215    -0.164
   CaHCO3+                5.118e-05   4.657e-05    -4.291    -4.332    -0.041
   CaSO4                  1.665e-05   1.668e-05    -4.779    -4.778     0.001
   CaCO3                  5.554e-06   5.565e-06    -5.255    -5.255     0.001
   CaOH+                  2.157e-09   1.956e-09    -8.666    -8.709    -0.042
   CaHSO4+                5.569e-12   5.050e-12   -11.254   -11.297    -0.042
Cl               1.337e-04
   Cl-                    1.337e-04   1.211e-04    -3.874    -3.917    -0.043
H(0)             0.000e+00
   H2                     0.000e+00   0.000e+00   -44.361   -44.361     0.001
Mg               7.070e-04
   Mg+2                   6.553e-04   4.513e-04    -3.184    -3.346    -0.162
   MgHCO3+                3.488e-05   3.164e-05    -4.457    -4.500    -0.042
   MgSO4                  1.449e-05   1.452e-05    -4.839    -4.838     0.001
   MgCO3                  2.337e-06   2.341e-06    -5.631    -5.631     0.001
   MgOH+                  3.495e-08   3.170e-08    -7.457    -7.499    -0.042
Na               3.870e-03
   Na+                    3.855e-03   3.500e-03    -2.414    -2.456    -0.042
   NaHCO3                 1.177e-05   1.179e-05    -4.929    -4.928     0.001
   NaSO4-                 2.654e-06   2.407e-06    -5.576    -5.618    -0.042
   NaCO3-                 3.907e-07   3.544e-07    -6.408    -6.451    -0.042
   NaOH                   4.465e-10   4.474e-10    -9.350    -9.349     0.001
O(0)             4.375e-04
   O2                     2.187e-04   2.192e-04    -3.660    -3.659     0.001
S(-2)            0.000e+00
   HS-                    0.000e+00   0.000e+00  -142.298  -142.341    -0.043
   H2S                    0.000e+00   0.000e+00  -142.687  -142.686     0.001
   S-2                    0.000e+00   0.000e+00  -147.806  -147.972    -0.166
S(6)             2.351e-04
   SO4-2                  2.013e-04   1.372e-04    -3.696    -3.862    -0.166
   CaSO4                  1.665e-05   1.668e-05    -4.779    -4.778     0.001
   MgSO4                  1.449e-05   1.452e-05    -4.839    -4.838     0.001
   NaSO4-                 2.654e-06   2.407e-06    -5.576    -5.618    -0.042
   HSO4-                  7.603e-10   6.895e-10    -9.119    -9.161    -0.042
   CaHSO4+                5.569e-12   5.050e-12   -11.254   -11.297    -0.042

------------------------------Saturation indices-------------------------------

	Phase               SI log IAP  log KT

	Anhydrite        -2.72   -7.08   -4.36  CaSO4
	Aragonite        -0.14   -8.48   -8.34  CaCO3
	Calcite              0   -8.48   -8.48  CaCO3
	CH4(g)         -140.75 -143.61   -2.86  CH4
	CO2(g)           -1.69   -3.16   -1.47  CO2
	Dolomite             0  -17.09  -17.09  CaMg(CO3)2
	Gypsum           -2.50   -7.08   -4.58  CaSO4:2H2O
	H2(g)           -41.21  -44.36   -3.15  H2
	H2O(g)           -1.51       0    1.51  H2O
	H2S(g)         -141.69 -142.69   -1.00  H2S
	Halite           -7.95   -6.37    1.58  NaCl
	O2(g)            -0.70   -3.66   -2.96  O2
	Sulfur         -106.36 -101.48    4.88  S

Time 100000. Cell 669: x=          72000	y=          30000	z=            400
Cell is dry.
Time 100000. Cell 672: x=          90000	y=          30000	z=            400
Cell is dry.
Time 100000. Cell 705: x=              0	y=          48000	z=            400
Cell is dry.
Time 100000. Cell 708: x=          18000	y=          48000	z=            400
Cell is dry.
Time 100000. Cell 711: x=          36000	y=          48000	z=            400
Cell is dry.
Time 100000. Cell 714: x=          54000	y=          48000	z=            400
Cell is dry.
Time 100000. Cell 717: x=          72000	y=          48000	z=            400
Cell is dry.
Time 100000. Cell 720: x=          90000	y=          48000	z=            400
Cell is dry.
