Output file:    linear_bc.O.chem
Chemistry file: linear_bc.chem.dat
Database file:  phast.dat

------------------
Reading data base.
------------------

	SOLUTION_MASTER_SPECIES
	SOLUTION_SPECIES
	PHASES
	EXCHANGE_MASTER_SPECIES
	EXCHANGE_SPECIES
	SURFACE_MASTER_SPECIES
	SURFACE_SPECIES
	RATES
	END
------------------------------------
Reading input data for simulation 1.
------------------------------------

	SOLUTION 1
	        Na      1.0
	        Cl      1.0
	SOLUTION 2
	        Na      2.0
	        Cl      2.0
	END
-------------------------------------------
Beginning of initial solution calculations.
-------------------------------------------

Initial solution 1.	

-----------------------------Solution composition------------------------------

	Elements           Molality       Moles

	Cl                1.000e-03   1.000e-03
	Na                1.000e-03   1.000e-03

----------------------------Description of solution----------------------------

                                       pH  =   7.000    
                                       pe  =   4.000    
                        Activity of water  =   1.000
                           Ionic strength  =   1.000e-03
                       Mass of water (kg)  =   1.000e+00
                 Total alkalinity (eq/kg)  =   3.658e-10
                    Total carbon (mol/kg)  =   0.000e+00
                       Total CO2 (mol/kg)  =   0.000e+00
                      Temperature (deg C)  =  25.000
                  Electrical balance (eq)  =  -3.658e-10
 Percent error, 100*(Cat-|An|)/(Cat+|An|)  =      0
                               Iterations  =   3
                                  Total H  = 1.110124e+02
                                  Total O  = 5.550622e+01

----------------------------Distribution of species----------------------------

                                                   Log       Log         Log 
   Species                 Molality    Activity  Molality  Activity     Gamma

   OH-                    1.038e-07   1.001e-07    -6.984    -7.000    -0.016
   H+                     1.034e-07   1.000e-07    -6.985    -7.000    -0.015
   H2O                    5.551e+01   1.000e+00     1.744         0         0
Cl               1.000e-03
   Cl-                    1.000e-03   9.649e-04    -3.000    -3.016    -0.016
H(0)             1.416e-25
   H2                     7.078e-26   7.079e-26   -25.150   -25.150         0
Na               1.000e-03
   Na+                    1.000e-03   9.652e-04    -3.000    -3.015    -0.015
   NaOH                   6.375e-11   6.377e-11   -10.196   -10.195         0
O(0)             0.000e+00
   O2                     0.000e+00   0.000e+00   -42.080   -42.080         0

------------------------------Saturation indices-------------------------------

	Phase               SI log IAP  log KT

	H2(g)           -22.00  -25.15   -3.15  H2
	H2O(g)           -1.51       0    1.51  H2O
	Halite           -7.61   -6.03    1.58  NaCl
	O2(g)           -39.12  -42.08   -2.96  O2

Initial solution 2.	

-----------------------------Solution composition------------------------------

	Elements           Molality       Moles

	Cl                2.000e-03   2.000e-03
	Na                2.000e-03   2.000e-03

----------------------------Description of solution----------------------------

                                       pH  =   7.000    
                                       pe  =   4.000    
                        Activity of water  =   1.000
                           Ionic strength  =   2.000e-03
                       Mass of water (kg)  =   1.000e+00
                 Total alkalinity (eq/kg)  =   6.056e-10
                    Total carbon (mol/kg)  =   0.000e+00
                       Total CO2 (mol/kg)  =   0.000e+00
                      Temperature (deg C)  =  25.000
                  Electrical balance (eq)  =  -6.056e-10
 Percent error, 100*(Cat-|An|)/(Cat+|An|)  =      0
                               Iterations  =   3
                                  Total H  = 1.110124e+02
                                  Total O  = 5.550622e+01

----------------------------Distribution of species----------------------------

                                                   Log       Log         Log 
   Species                 Molality    Activity  Molality  Activity     Gamma

   OH-                    1.052e-07   1.001e-07    -6.978    -7.000    -0.022
   H+                     1.047e-07   1.000e-07    -6.980    -7.000    -0.020
   H2O                    5.551e+01   9.999e-01     1.744         0         0
Cl               2.000e-03
   Cl-                    2.000e-03   1.903e-03    -2.699    -2.721    -0.022
H(0)             1.415e-25
   H2                     7.076e-26   7.079e-26   -25.150   -25.150         0
Na               2.000e-03
   Na+                    2.000e-03   1.904e-03    -2.699    -2.720    -0.021
   NaOH                   1.257e-10   1.258e-10    -9.901    -9.900         0
O(0)             0.000e+00
   O2                     0.000e+00   0.000e+00   -42.080   -42.080         0

------------------------------Saturation indices-------------------------------

	Phase               SI log IAP  log KT

	H2(g)           -22.00  -25.15   -3.15  H2
	H2O(g)           -1.51       0    1.51  H2O
	Halite           -7.02   -5.44    1.58  NaCl
	O2(g)           -39.12  -42.08   -2.96  O2

------------------
End of simulation.
------------------

------------------------------------
Reading input data for simulation 2.
------------------------------------

	SELECTED_OUTPUT
	        file linear_bc.sel
	        reset false
	        totals Na      Cl
	END
------------------
End of simulation.
------------------

------------------------------------
Reading input data for simulation 3.
------------------------------------

List of Components:
	1	H
	2	O
	3	Cl
	4	Na
	5	Charge
List of master species:
	1	Cl
	2	Na
Time 0. Cell 1: x=              0	y=              0	z=              0
Using solution 1.

-----------------------------Solution composition------------------------------

	Elements           Molality       Moles

	Cl                1.000e-03   1.000e-03
	Na                1.000e-03   1.000e-03

----------------------------Description of solution----------------------------

                                       pH  =   7.000      Charge balance
                                       pe  =   4.000      Adjusted to redox equilibrium
                        Activity of water  =   1.000
                           Ionic strength  =   1.000e-03
                       Mass of water (kg)  =   1.000e+00
                 Total alkalinity (eq/kg)  =   3.658e-10
                    Total carbon (mol/kg)  =   0.000e+00
                       Total CO2 (mol/kg)  =   0.000e+00
                      Temperature (deg C)  =  25.000
                  Electrical balance (eq)  =  -3.658e-10
 Percent error, 100*(Cat-|An|)/(Cat+|An|)  =      0
                               Iterations  =   0
                                  Total H  = 1.110124e+02
                                  Total O  = 5.550622e+01

----------------------------Distribution of species----------------------------

                                                   Log       Log         Log 
   Species                 Molality    Activity  Molality  Activity     Gamma

   OH-                    1.038e-07   1.001e-07    -6.984    -7.000    -0.016
   H+                     1.034e-07   1.000e-07    -6.985    -7.000    -0.015
   H2O                    5.551e+01   1.000e+00     1.744         0         0
Cl               1.000e-03
   Cl-                    1.000e-03   9.649e-04    -3.000    -3.016    -0.016
H(0)             1.416e-25
   H2                     7.078e-26   7.079e-26   -25.150   -25.150         0
Na               1.000e-03
   Na+                    1.000e-03   9.652e-04    -3.000    -3.015    -0.015
   NaOH                   6.375e-11   6.377e-11   -10.196   -10.195         0
O(0)             0.000e+00
   O2                     0.000e+00   0.000e+00   -42.080   -42.080         0

------------------------------Saturation indices-------------------------------

	Phase               SI log IAP  log KT

	H2(g)           -22.00  -25.15   -3.15  H2
	H2O(g)           -1.51       0    1.51  H2O
	Halite           -7.61   -6.03    1.58  NaCl
	O2(g)           -39.12  -42.08   -2.96  O2

Time 0. Cell 2: x=              1	y=              0	z=              0
Using solution 2.

-----------------------------Solution composition------------------------------

	Elements           Molality       Moles

	Cl                1.100e-03   1.100e-03
	Na                1.100e-03   1.100e-03

----------------------------Description of solution----------------------------

                                       pH  =   7.000      Charge balance
                                       pe  =  10.804      Adjusted to redox equilibrium
                        Activity of water  =   1.000
                           Ionic strength  =   1.100e-03
                       Mass of water (kg)  =   1.000e+00
                 Total alkalinity (eq/kg)  =   3.898e-10
                    Total carbon (mol/kg)  =   0.000e+00
                       Total CO2 (mol/kg)  =   0.000e+00
                      Temperature (deg C)  =  25.000
                  Electrical balance (eq)  =  -3.898e-10
 Percent error, 100*(Cat-|An|)/(Cat+|An|)  =      0
                               Iterations  =  13
                                  Total H  = 1.110124e+02
                                  Total O  = 5.550622e+01

----------------------------Distribution of species----------------------------

                                                   Log       Log         Log 
   Species                 Molality    Activity  Molality  Activity     Gamma

   OH-                    1.039e-07   1.001e-07    -6.983    -7.000    -0.016
   H+                     1.036e-07   1.000e-07    -6.985    -7.000    -0.015
   H2O                    5.551e+01   1.000e+00     1.744         0         0
Cl               1.100e-03
   Cl-                    1.100e-03   1.060e-03    -2.959    -2.975    -0.016
H(0)             3.498e-39
   H2                     1.749e-39   1.750e-39   -38.757   -38.757         0
Na               1.100e-03
   Na+                    1.100e-03   1.060e-03    -2.959    -2.975    -0.016
   NaOH                   7.001e-11   7.003e-11   -10.155   -10.155         0
O(0)             2.723e-15
   O2                     1.361e-15   1.362e-15   -14.866   -14.866         0

------------------------------Saturation indices-------------------------------

	Phase               SI log IAP  log KT

	H2(g)           -35.61  -38.76   -3.15  H2
	H2O(g)           -1.51       0    1.51  H2O
	Halite           -7.53   -5.95    1.58  NaCl
	O2(g)           -11.91  -14.87   -2.96  O2

Time 0. Cell 3: x=              2	y=              0	z=              0
Using solution 3.

-----------------------------Solution composition------------------------------

	Elements           Molality       Moles

	Cl                1.200e-03   1.200e-03
	Na                1.200e-03   1.200e-03

----------------------------Description of solution----------------------------

                                       pH  =   7.000      Charge balance
                                       pe  =  10.922      Adjusted to redox equilibrium
                        Activity of water  =   1.000
                           Ionic strength  =   1.200e-03
                       Mass of water (kg)  =   1.000e+00
                 Total alkalinity (eq/kg)  =   4.137e-10
                    Total carbon (mol/kg)  =   0.000e+00
                       Total CO2 (mol/kg)  =   0.000e+00
                      Temperature (deg C)  =  25.000
                  Electrical balance (eq)  =  -4.137e-10
 Percent error, 100*(Cat-|An|)/(Cat+|An|)  =      0
                               Iterations  =  13
                                  Total H  = 1.110124e+02
                                  Total O  = 5.550622e+01

----------------------------Distribution of species----------------------------

                                                   Log       Log         Log 
   Species                 Molality    Activity  Molality  Activity     Gamma

   OH-                    1.041e-07   1.001e-07    -6.983    -7.000    -0.017
   H+                     1.038e-07   1.000e-07    -6.984    -7.000    -0.016
   H2O                    5.551e+01   1.000e+00     1.744         0         0
Cl               1.200e-03
   Cl-                    1.200e-03   1.154e-03    -2.921    -2.938    -0.017
H(0)             2.024e-39
   H2                     1.012e-39   1.012e-39   -38.995   -38.995         0
Na               1.200e-03
   Na+                    1.200e-03   1.155e-03    -2.921    -2.938    -0.017
   NaOH                   7.625e-11   7.627e-11   -10.118   -10.118         0
O(0)             8.135e-15
   O2                     4.067e-15   4.069e-15   -14.391   -14.391         0

------------------------------Saturation indices-------------------------------

	Phase               SI log IAP  log KT

	H2(g)           -35.84  -38.99   -3.15  H2
	H2O(g)           -1.51       0    1.51  H2O
	Halite           -7.46   -5.88    1.58  NaCl
	O2(g)           -11.43  -14.39   -2.96  O2

Time 0. Cell 4: x=              3	y=              0	z=              0
Using solution 4.

-----------------------------Solution composition------------------------------

	Elements           Molality       Moles

	Cl                1.300e-03   1.300e-03
	Na                1.300e-03   1.300e-03

----------------------------Description of solution----------------------------

                                       pH  =   7.000      Charge balance
                                       pe  =  10.954      Adjusted to redox equilibrium
                        Activity of water  =   1.000
                           Ionic strength  =   1.300e-03
                       Mass of water (kg)  =   1.000e+00
                 Total alkalinity (eq/kg)  =   4.377e-10
                    Total carbon (mol/kg)  =   0.000e+00
                       Total CO2 (mol/kg)  =   0.000e+00
                      Temperature (deg C)  =  25.000
                  Electrical balance (eq)  =  -4.377e-10
 Percent error, 100*(Cat-|An|)/(Cat+|An|)  =      0
                               Iterations  =  12
                                  Total H  = 1.110124e+02
                                  Total O  = 5.550622e+01

----------------------------Distribution of species----------------------------

                                                   Log       Log         Log 
   Species                 Molality    Activity  Molality  Activity     Gamma

   OH-                    1.043e-07   1.001e-07    -6.982    -7.000    -0.018
   H+                     1.039e-07   1.000e-07    -6.983    -7.000    -0.017
   H2O                    5.551e+01   1.000e+00     1.744         0         0
Cl               1.300e-03
   Cl-                    1.300e-03   1.248e-03    -2.886    -2.904    -0.018
H(0)             1.748e-39
   H2                     8.739e-40   8.742e-40   -39.059   -39.058         0
Na               1.300e-03
   Na+                    1.300e-03   1.249e-03    -2.886    -2.903    -0.017
   NaOH                   8.248e-11   8.251e-11   -10.084   -10.084         0
O(0)             1.091e-14
   O2                     5.453e-15   5.454e-15   -14.263   -14.263         0

------------------------------Saturation indices-------------------------------

	Phase               SI log IAP  log KT

	H2(g)           -35.91  -39.06   -3.15  H2
	H2O(g)           -1.51       0    1.51  H2O
	Halite           -7.39   -5.81    1.58  NaCl
	O2(g)           -11.30  -14.26   -2.96  O2

Time 0. Cell 5: x=              4	y=              0	z=              0
Using solution 5.

-----------------------------Solution composition------------------------------

	Elements           Molality       Moles

	Cl                1.400e-03   1.400e-03
	Na                1.400e-03   1.400e-03

----------------------------Description of solution----------------------------

                                       pH  =   7.000      Charge balance
                                       pe  =  11.089      Adjusted to redox equilibrium
                        Activity of water  =   1.000
                           Ionic strength  =   1.400e-03
                       Mass of water (kg)  =   1.000e+00
                 Total alkalinity (eq/kg)  =   4.617e-10
                    Total carbon (mol/kg)  =   0.000e+00
                       Total CO2 (mol/kg)  =   0.000e+00
                      Temperature (deg C)  =  25.000
                  Electrical balance (eq)  =  -4.617e-10
 Percent error, 100*(Cat-|An|)/(Cat+|An|)  =      0
                               Iterations  =  11
                                  Total H  = 1.110124e+02
                                  Total O  = 5.550622e+01

----------------------------Distribution of species----------------------------

                                                   Log       Log         Log 
   Species                 Molality    Activity  Molality  Activity     Gamma

   OH-                    1.044e-07   1.001e-07    -6.981    -7.000    -0.018
   H+                     1.040e-07   1.000e-07    -6.983    -7.000    -0.017
   H2O                    5.551e+01   1.000e+00     1.744         0         0
Cl               1.400e-03
   Cl-                    1.400e-03   1.342e-03    -2.854    -2.872    -0.018
H(0)             9.376e-40
   H2                     4.688e-40   4.689e-40   -39.329   -39.329         0
Na               1.400e-03
   Na+                    1.400e-03   1.343e-03    -2.854    -2.872    -0.018
   NaOH                   8.870e-11   8.872e-11   -10.052   -10.052         0
O(0)             3.790e-14
   O2                     1.895e-14   1.895e-14   -13.722   -13.722         0

------------------------------Saturation indices-------------------------------

	Phase               SI log IAP  log KT

	H2(g)           -36.18  -39.33   -3.15  H2
	H2O(g)           -1.51       0    1.51  H2O
	Halite           -7.33   -5.74    1.58  NaCl
	O2(g)           -10.76  -13.72   -2.96  O2

Time 0. Cell 6: x=              5	y=              0	z=              0
Using solution 6.

-----------------------------Solution composition------------------------------

	Elements           Molality       Moles

	Cl                1.500e-03   1.500e-03
	Na                1.500e-03   1.500e-03

----------------------------Description of solution----------------------------

                                       pH  =   7.000      Charge balance
                                       pe  =  11.254      Adjusted to redox equilibrium
                        Activity of water  =   1.000
                           Ionic strength  =   1.500e-03
                       Mass of water (kg)  =   1.000e+00
                 Total alkalinity (eq/kg)  =   4.857e-10
                    Total carbon (mol/kg)  =   0.000e+00
                       Total CO2 (mol/kg)  =   0.000e+00
                      Temperature (deg C)  =  25.000
                  Electrical balance (eq)  =  -4.857e-10
 Percent error, 100*(Cat-|An|)/(Cat+|An|)  =      0
                               Iterations  =  10
                                  Total H  = 1.110124e+02
                                  Total O  = 5.550622e+01

----------------------------Distribution of species----------------------------

                                                   Log       Log         Log 
   Species                 Molality    Activity  Molality  Activity     Gamma

   OH-                    1.046e-07   1.001e-07    -6.981    -7.000    -0.019
   H+                     1.042e-07   1.000e-07    -6.982    -7.000    -0.018
   H2O                    5.551e+01   9.999e-01     1.744         0         0
Cl               1.500e-03
   Cl-                    1.500e-03   1.436e-03    -2.824    -2.843    -0.019
H(0)             4.392e-40
   H2                     2.196e-40   2.197e-40   -39.658   -39.658         0
Na               1.500e-03
   Na+                    1.500e-03   1.437e-03    -2.824    -2.843    -0.019
   NaOH                   9.490e-11   9.493e-11   -10.023   -10.023         0
O(0)             1.727e-13
   O2                     8.636e-14   8.638e-14   -13.064   -13.064         0

------------------------------Saturation indices-------------------------------

	Phase               SI log IAP  log KT

	H2(g)           -36.51  -39.66   -3.15  H2
	H2O(g)           -1.51       0    1.51  H2O
	Halite           -7.27   -5.69    1.58  NaCl
	O2(g)           -10.10  -13.06   -2.96  O2

Time 0. Cell 7: x=              6	y=              0	z=              0
Using solution 7.

-----------------------------Solution composition------------------------------

	Elements           Molality       Moles

	Cl                1.600e-03   1.600e-03
	Na                1.600e-03   1.600e-03

----------------------------Description of solution----------------------------

                                       pH  =   7.000      Charge balance
                                       pe  =  11.270      Adjusted to redox equilibrium
                        Activity of water  =   1.000
                           Ionic strength  =   1.600e-03
                       Mass of water (kg)  =   1.000e+00
                 Total alkalinity (eq/kg)  =   5.097e-10
                    Total carbon (mol/kg)  =   0.000e+00
                       Total CO2 (mol/kg)  =   0.000e+00
                      Temperature (deg C)  =  25.000
                  Electrical balance (eq)  =  -5.097e-10
 Percent error, 100*(Cat-|An|)/(Cat+|An|)  =      0
                               Iterations  =  10
                                  Total H  = 1.110124e+02
                                  Total O  = 5.550622e+01

----------------------------Distribution of species----------------------------

                                                   Log       Log         Log 
   Species                 Molality    Activity  Molality  Activity     Gamma

   OH-                    1.047e-07   1.001e-07    -6.980    -7.000    -0.019
   H+                     1.043e-07   1.000e-07    -6.982    -7.000    -0.018
   H2O                    5.551e+01   9.999e-01     1.744         0         0
Cl               1.600e-03
   Cl-                    1.600e-03   1.530e-03    -2.796    -2.815    -0.019
H(0)             4.078e-40
   H2                     2.039e-40   2.040e-40   -39.691   -39.690         0
Na               1.600e-03
   Na+                    1.600e-03   1.531e-03    -2.796    -2.815    -0.019
   NaOH                   1.011e-10   1.011e-10    -9.995    -9.995         0
O(0)             2.003e-13
   O2                     1.001e-13   1.002e-13   -12.999   -12.999         0

------------------------------Saturation indices-------------------------------

	Phase               SI log IAP  log KT

	H2(g)           -36.54  -39.69   -3.15  H2
	H2O(g)           -1.51       0    1.51  H2O
	Halite           -7.21   -5.63    1.58  NaCl
	O2(g)           -10.04  -13.00   -2.96  O2

Time 0. Cell 8: x=              7	y=              0	z=              0
Using solution 8.

-----------------------------Solution composition------------------------------

	Elements           Molality       Moles

	Cl                1.700e-03   1.700e-03
	Na                1.700e-03   1.700e-03

----------------------------Description of solution----------------------------

                                       pH  =   7.000      Charge balance
                                       pe  =  11.298      Adjusted to redox equilibrium
                        Activity of water  =   1.000
                           Ionic strength  =   1.700e-03
                       Mass of water (kg)  =   1.000e+00
                 Total alkalinity (eq/kg)  =   5.336e-10
                    Total carbon (mol/kg)  =   0.000e+00
                       Total CO2 (mol/kg)  =   0.000e+00
                      Temperature (deg C)  =  25.000
                  Electrical balance (eq)  =  -5.336e-10
 Percent error, 100*(Cat-|An|)/(Cat+|An|)  =      0
                               Iterations  =  10
                                  Total H  = 1.110124e+02
                                  Total O  = 5.550622e+01

----------------------------Distribution of species----------------------------

                                                   Log       Log         Log 
   Species                 Molality    Activity  Molality  Activity     Gamma

   OH-                    1.048e-07   1.001e-07    -6.980    -7.000    -0.020
   H+                     1.044e-07   1.000e-07    -6.981    -7.000    -0.019
   H2O                    5.551e+01   9.999e-01     1.744         0         0
Cl               1.700e-03
   Cl-                    1.700e-03   1.623e-03    -2.770    -2.790    -0.020
H(0)             3.581e-40
   H2                     1.791e-40   1.791e-40   -39.747   -39.747         0
Na               1.700e-03
   Na+                    1.700e-03   1.624e-03    -2.770    -2.789    -0.020
   NaOH                   1.073e-10   1.073e-10    -9.970    -9.969         0
O(0)             2.597e-13
   O2                     1.299e-13   1.299e-13   -12.887   -12.886         0

------------------------------Saturation indices-------------------------------

	Phase               SI log IAP  log KT

	H2(g)           -36.60  -39.75   -3.15  H2
	H2O(g)           -1.51       0    1.51  H2O
	Halite           -7.16   -5.58    1.58  NaCl
	O2(g)            -9.93  -12.89   -2.96  O2

Time 0. Cell 9: x=              8	y=              0	z=              0
Using solution 9.

-----------------------------Solution composition------------------------------

	Elements           Molality       Moles

	Cl                1.800e-03   1.800e-03
	Na                1.800e-03   1.800e-03

----------------------------Description of solution----------------------------

                                       pH  =   7.000      Charge balance
                                       pe  =  11.325      Adjusted to redox equilibrium
                        Activity of water  =   1.000
                           Ionic strength  =   1.800e-03
                       Mass of water (kg)  =   1.000e+00
                 Total alkalinity (eq/kg)  =   5.576e-10
                    Total carbon (mol/kg)  =   0.000e+00
                       Total CO2 (mol/kg)  =   0.000e+00
                      Temperature (deg C)  =  25.000
                  Electrical balance (eq)  =  -5.576e-10
 Percent error, 100*(Cat-|An|)/(Cat+|An|)  =      0
                               Iterations  =  10
                                  Total H  = 1.110124e+02
                                  Total O  = 5.550622e+01

----------------------------Distribution of species----------------------------

                                                   Log       Log         Log 
   Species                 Molality    Activity  Molality  Activity     Gamma

   OH-                    1.050e-07   1.001e-07    -6.979    -7.000    -0.021
   H+                     1.045e-07   1.000e-07    -6.981    -7.000    -0.019
   H2O                    5.551e+01   9.999e-01     1.744         0         0
Cl               1.800e-03
   Cl-                    1.800e-03   1.717e-03    -2.745    -2.765    -0.021
H(0)             3.162e-40
   H2                     1.581e-40   1.582e-40   -39.801   -39.801         0
Na               1.800e-03
   Na+                    1.800e-03   1.718e-03    -2.745    -2.765    -0.020
   NaOH                   1.134e-10   1.135e-10    -9.945    -9.945         0
O(0)             3.330e-13
   O2                     1.665e-13   1.666e-13   -12.779   -12.778         0

------------------------------Saturation indices-------------------------------

	Phase               SI log IAP  log KT

	H2(g)           -36.65  -39.80   -3.15  H2
	H2O(g)           -1.51       0    1.51  H2O
	Halite           -7.11   -5.53    1.58  NaCl
	O2(g)            -9.82  -12.78   -2.96  O2

Time 0. Cell 10: x=              9	y=              0	z=              0
Using solution 10.

-----------------------------Solution composition------------------------------

	Elements           Molality       Moles

	Cl                1.900e-03   1.900e-03
	Na                1.900e-03   1.900e-03

----------------------------Description of solution----------------------------

                                       pH  =   7.000      Charge balance
                                       pe  =  11.464      Adjusted to redox equilibrium
                        Activity of water  =   1.000
                           Ionic strength  =   1.900e-03
                       Mass of water (kg)  =   1.000e+00
                 Total alkalinity (eq/kg)  =   5.816e-10
                    Total carbon (mol/kg)  =   0.000e+00
                       Total CO2 (mol/kg)  =   0.000e+00
                      Temperature (deg C)  =  25.000
                  Electrical balance (eq)  =  -5.816e-10
 Percent error, 100*(Cat-|An|)/(Cat+|An|)  =      0
                               Iterations  =   9
                                  Total H  = 1.110124e+02
                                  Total O  = 5.550622e+01

----------------------------Distribution of species----------------------------

                                                   Log       Log         Log 
   Species                 Molality    Activity  Molality  Activity     Gamma

   OH-                    1.051e-07   1.001e-07    -6.978    -7.000    -0.021
   H+                     1.046e-07   1.000e-07    -6.980    -7.000    -0.020
   H2O                    5.551e+01   9.999e-01     1.744         0         0
Cl               1.900e-03
   Cl-                    1.900e-03   1.810e-03    -2.721    -2.742    -0.021
H(0)             0.000e+00
   H2                     0.000e+00   0.000e+00   -40.078   -40.078         0
Na               1.900e-03
   Na+                    1.900e-03   1.811e-03    -2.721    -2.742    -0.021
   NaOH                   1.196e-10   1.196e-10    -9.922    -9.922         0
O(0)             1.192e-12
   O2                     5.962e-13   5.965e-13   -12.225   -12.224         0

------------------------------Saturation indices-------------------------------

	Phase               SI log IAP  log KT

	H2(g)           -36.93  -40.08   -3.15  H2
	H2O(g)           -1.51       0    1.51  H2O
	Halite           -7.07   -5.48    1.58  NaCl
	O2(g)            -9.26  -12.22   -2.96  O2

Time 0. Cell 11: x=             10	y=              0	z=              0
Using solution 11.

-----------------------------Solution composition------------------------------

	Elements           Molality       Moles

	Cl                2.000e-03   2.000e-03
	Na                2.000e-03   2.000e-03

----------------------------Description of solution----------------------------

                                       pH  =   7.000      Charge balance
                                       pe  =   4.000      Adjusted to redox equilibrium
                        Activity of water  =   1.000
                           Ionic strength  =   2.000e-03
                       Mass of water (kg)  =   1.000e+00
                 Total alkalinity (eq/kg)  =   6.056e-10
                    Total carbon (mol/kg)  =   0.000e+00
                       Total CO2 (mol/kg)  =   0.000e+00
                      Temperature (deg C)  =  25.000
                  Electrical balance (eq)  =  -6.056e-10
 Percent error, 100*(Cat-|An|)/(Cat+|An|)  =      0
                               Iterations  =   0
                                  Total H  = 1.110124e+02
                                  Total O  = 5.550622e+01

----------------------------Distribution of species----------------------------

                                                   Log       Log         Log 
   Species                 Molality    Activity  Molality  Activity     Gamma

   OH-                    1.052e-07   1.001e-07    -6.978    -7.000    -0.022
   H+                     1.047e-07   1.000e-07    -6.980    -7.000    -0.020
   H2O                    5.551e+01   9.999e-01     1.744         0         0
Cl               2.000e-03
   Cl-                    2.000e-03   1.903e-03    -2.699    -2.721    -0.022
H(0)             1.415e-25
   H2                     7.076e-26   7.079e-26   -25.150   -25.150         0
Na               2.000e-03
   Na+                    2.000e-03   1.904e-03    -2.699    -2.720    -0.021
   NaOH                   1.257e-10   1.258e-10    -9.901    -9.900         0
O(0)             0.000e+00
   O2                     0.000e+00   0.000e+00   -42.080   -42.080         0

------------------------------Saturation indices-------------------------------

	Phase               SI log IAP  log KT

	H2(g)           -22.00  -25.15   -3.15  H2
	H2O(g)           -1.51       0    1.51  H2O
	Halite           -7.02   -5.44    1.58  NaCl
	O2(g)           -39.12  -42.08   -2.96  O2

Time 0. Cell 12: x=              0	y=              1	z=              0
Using solution 12.

-----------------------------Solution composition------------------------------

	Elements           Molality       Moles

	Cl                1.000e-03   1.000e-03
	Na                1.000e-03   1.000e-03

----------------------------Description of solution----------------------------

                                       pH  =   7.000      Charge balance
                                       pe  =   4.000      Adjusted to redox equilibrium
                        Activity of water  =   1.000
                           Ionic strength  =   1.000e-03
                       Mass of water (kg)  =   1.000e+00
                 Total alkalinity (eq/kg)  =   3.658e-10
                    Total carbon (mol/kg)  =   0.000e+00
                       Total CO2 (mol/kg)  =   0.000e+00
                      Temperature (deg C)  =  25.000
                  Electrical balance (eq)  =  -3.658e-10
 Percent error, 100*(Cat-|An|)/(Cat+|An|)  =      0
                               Iterations  =   0
                                  Total H  = 1.110124e+02
                                  Total O  = 5.550622e+01

----------------------------Distribution of species----------------------------

                                                   Log       Log         Log 
   Species                 Molality    Activity  Molality  Activity     Gamma

   OH-                    1.038e-07   1.001e-07    -6.984    -7.000    -0.016
   H+                     1.034e-07   1.000e-07    -6.985    -7.000    -0.015
   H2O                    5.551e+01   1.000e+00     1.744         0         0
Cl               1.000e-03
   Cl-                    1.000e-03   9.649e-04    -3.000    -3.016    -0.016
H(0)             1.416e-25
   H2                     7.078e-26   7.079e-26   -25.150   -25.150         0
Na               1.000e-03
   Na+                    1.000e-03   9.652e-04    -3.000    -3.015    -0.015
   NaOH                   6.375e-11   6.377e-11   -10.196   -10.195         0
O(0)             0.000e+00
   O2                     0.000e+00   0.000e+00   -42.080   -42.080         0

------------------------------Saturation indices-------------------------------

	Phase               SI log IAP  log KT

	H2(g)           -22.00  -25.15   -3.15  H2
	H2O(g)           -1.51       0    1.51  H2O
	Halite           -7.61   -6.03    1.58  NaCl
	O2(g)           -39.12  -42.08   -2.96  O2

Time 0. Cell 13: x=              1	y=              1	z=              0
Using solution 13.

-----------------------------Solution composition------------------------------

	Elements           Molality       Moles

	Cl                1.100e-03   1.100e-03
	Na                1.100e-03   1.100e-03

----------------------------Description of solution----------------------------

                                       pH  =   7.000      Charge balance
                                       pe  =  10.804      Adjusted to redox equilibrium
                        Activity of water  =   1.000
                           Ionic strength  =   1.100e-03
                       Mass of water (kg)  =   1.000e+00
                 Total alkalinity (eq/kg)  =   3.898e-10
                    Total carbon (mol/kg)  =   0.000e+00
                       Total CO2 (mol/kg)  =   0.000e+00
                      Temperature (deg C)  =  25.000
                  Electrical balance (eq)  =  -3.898e-10
 Percent error, 100*(Cat-|An|)/(Cat+|An|)  =      0
                               Iterations  =  13
                                  Total H  = 1.110124e+02
                                  Total O  = 5.550622e+01

----------------------------Distribution of species----------------------------

                                                   Log       Log         Log 
   Species                 Molality    Activity  Molality  Activity     Gamma

   OH-                    1.039e-07   1.001e-07    -6.983    -7.000    -0.016
   H+                     1.036e-07   1.000e-07    -6.985    -7.000    -0.015
   H2O                    5.551e+01   1.000e+00     1.744         0         0
Cl               1.100e-03
   Cl-                    1.100e-03   1.060e-03    -2.959    -2.975    -0.016
H(0)             3.498e-39
   H2                     1.749e-39   1.750e-39   -38.757   -38.757         0
Na               1.100e-03
   Na+                    1.100e-03   1.060e-03    -2.959    -2.975    -0.016
   NaOH                   7.001e-11   7.003e-11   -10.155   -10.155         0
O(0)             2.723e-15
   O2                     1.361e-15   1.362e-15   -14.866   -14.866         0

------------------------------Saturation indices-------------------------------

	Phase               SI log IAP  log KT

	H2(g)           -35.61  -38.76   -3.15  H2
	H2O(g)           -1.51       0    1.51  H2O
	Halite           -7.53   -5.95    1.58  NaCl
	O2(g)           -11.91  -14.87   -2.96  O2

Time 0. Cell 14: x=              2	y=              1	z=              0
Using solution 14.

-----------------------------Solution composition------------------------------

	Elements           Molality       Moles

	Cl                1.200e-03   1.200e-03
	Na                1.200e-03   1.200e-03

----------------------------Description of solution----------------------------

                                       pH  =   7.000      Charge balance
                                       pe  =  10.922      Adjusted to redox equilibrium
                        Activity of water  =   1.000
                           Ionic strength  =   1.200e-03
                       Mass of water (kg)  =   1.000e+00
                 Total alkalinity (eq/kg)  =   4.137e-10
                    Total carbon (mol/kg)  =   0.000e+00
                       Total CO2 (mol/kg)  =   0.000e+00
                      Temperature (deg C)  =  25.000
                  Electrical balance (eq)  =  -4.137e-10
 Percent error, 100*(Cat-|An|)/(Cat+|An|)  =      0
                               Iterations  =  13
                                  Total H  = 1.110124e+02
                                  Total O  = 5.550622e+01

----------------------------Distribution of species----------------------------

                                                   Log       Log         Log 
   Species                 Molality    Activity  Molality  Activity     Gamma

   OH-                    1.041e-07   1.001e-07    -6.983    -7.000    -0.017
   H+                     1.038e-07   1.000e-07    -6.984    -7.000    -0.016
   H2O                    5.551e+01   1.000e+00     1.744         0         0
Cl               1.200e-03
   Cl-                    1.200e-03   1.154e-03    -2.921    -2.938    -0.017
H(0)             2.024e-39
   H2                     1.012e-39   1.012e-39   -38.995   -38.995         0
Na               1.200e-03
   Na+                    1.200e-03   1.155e-03    -2.921    -2.938    -0.017
   NaOH                   7.625e-11   7.627e-11   -10.118   -10.118         0
O(0)             8.135e-15
   O2                     4.067e-15   4.069e-15   -14.391   -14.391         0

------------------------------Saturation indices-------------------------------

	Phase               SI log IAP  log KT

	H2(g)           -35.84  -38.99   -3.15  H2
	H2O(g)           -1.51       0    1.51  H2O
	Halite           -7.46   -5.88    1.58  NaCl
	O2(g)           -11.43  -14.39   -2.96  O2

Time 0. Cell 15: x=              3	y=              1	z=              0
Using solution 15.

-----------------------------Solution composition------------------------------

	Elements           Molality       Moles

	Cl                1.300e-03   1.300e-03
	Na                1.300e-03   1.300e-03

----------------------------Description of solution----------------------------

                                       pH  =   7.000      Charge balance
                                       pe  =  10.954      Adjusted to redox equilibrium
                        Activity of water  =   1.000
                           Ionic strength  =   1.300e-03
                       Mass of water (kg)  =   1.000e+00
                 Total alkalinity (eq/kg)  =   4.377e-10
                    Total carbon (mol/kg)  =   0.000e+00
                       Total CO2 (mol/kg)  =   0.000e+00
                      Temperature (deg C)  =  25.000
                  Electrical balance (eq)  =  -4.377e-10
 Percent error, 100*(Cat-|An|)/(Cat+|An|)  =      0
                               Iterations  =  12
                                  Total H  = 1.110124e+02
                                  Total O  = 5.550622e+01

----------------------------Distribution of species----------------------------

                                                   Log       Log         Log 
   Species                 Molality    Activity  Molality  Activity     Gamma

   OH-                    1.043e-07   1.001e-07    -6.982    -7.000    -0.018
   H+                     1.039e-07   1.000e-07    -6.983    -7.000    -0.017
   H2O                    5.551e+01   1.000e+00     1.744         0         0
Cl               1.300e-03
   Cl-                    1.300e-03   1.248e-03    -2.886    -2.904    -0.018
H(0)             1.748e-39
   H2                     8.739e-40   8.742e-40   -39.059   -39.058         0
Na               1.300e-03
   Na+                    1.300e-03   1.249e-03    -2.886    -2.903    -0.017
   NaOH                   8.248e-11   8.251e-11   -10.084   -10.084         0
O(0)             1.091e-14
   O2                     5.453e-15   5.454e-15   -14.263   -14.263         0

------------------------------Saturation indices-------------------------------

	Phase               SI log IAP  log KT

	H2(g)           -35.91  -39.06   -3.15  H2
	H2O(g)           -1.51       0    1.51  H2O
	Halite           -7.39   -5.81    1.58  NaCl
	O2(g)           -11.30  -14.26   -2.96  O2

Time 0. Cell 16: x=              4	y=              1	z=              0
Using solution 16.

-----------------------------Solution composition------------------------------

	Elements           Molality       Moles

	Cl                1.400e-03   1.400e-03
	Na                1.400e-03   1.400e-03

----------------------------Description of solution----------------------------

                                       pH  =   7.000      Charge balance
                                       pe  =  11.089      Adjusted to redox equilibrium
                        Activity of water  =   1.000
                           Ionic strength  =   1.400e-03
                       Mass of water (kg)  =   1.000e+00
                 Total alkalinity (eq/kg)  =   4.617e-10
                    Total carbon (mol/kg)  =   0.000e+00
                       Total CO2 (mol/kg)  =   0.000e+00
                      Temperature (deg C)  =  25.000
                  Electrical balance (eq)  =  -4.617e-10
 Percent error, 100*(Cat-|An|)/(Cat+|An|)  =      0
                               Iterations  =  11
                                  Total H  = 1.110124e+02
                                  Total O  = 5.550622e+01

----------------------------Distribution of species----------------------------

                                                   Log       Log         Log 
   Species                 Molality    Activity  Molality  Activity     Gamma

   OH-                    1.044e-07   1.001e-07    -6.981    -7.000    -0.018
   H+                     1.040e-07   1.000e-07    -6.983    -7.000    -0.017
   H2O                    5.551e+01   1.000e+00     1.744         0         0
Cl               1.400e-03
   Cl-                    1.400e-03   1.342e-03    -2.854    -2.872    -0.018
H(0)             9.376e-40
   H2                     4.688e-40   4.689e-40   -39.329   -39.329         0
Na               1.400e-03
   Na+                    1.400e-03   1.343e-03    -2.854    -2.872    -0.018
   NaOH                   8.870e-11   8.872e-11   -10.052   -10.052         0
O(0)             3.790e-14
   O2                     1.895e-14   1.895e-14   -13.722   -13.722         0

------------------------------Saturation indices-------------------------------

	Phase               SI log IAP  log KT

	H2(g)           -36.18  -39.33   -3.15  H2
	H2O(g)           -1.51       0    1.51  H2O
	Halite           -7.33   -5.74    1.58  NaCl
	O2(g)           -10.76  -13.72   -2.96  O2

Time 0. Cell 17: x=              5	y=              1	z=              0
Using solution 17.

-----------------------------Solution composition------------------------------

	Elements           Molality       Moles

	Cl                1.500e-03   1.500e-03
	Na                1.500e-03   1.500e-03

----------------------------Description of solution----------------------------

                                       pH  =   7.000      Charge balance
                                       pe  =  11.254      Adjusted to redox equilibrium
                        Activity of water  =   1.000
                           Ionic strength  =   1.500e-03
                       Mass of water (kg)  =   1.000e+00
                 Total alkalinity (eq/kg)  =   4.857e-10
                    Total carbon (mol/kg)  =   0.000e+00
                       Total CO2 (mol/kg)  =   0.000e+00
                      Temperature (deg C)  =  25.000
                  Electrical balance (eq)  =  -4.857e-10
 Percent error, 100*(Cat-|An|)/(Cat+|An|)  =      0
                               Iterations  =  10
                                  Total H  = 1.110124e+02
                                  Total O  = 5.550622e+01

----------------------------Distribution of species----------------------------

                                                   Log       Log         Log 
   Species                 Molality    Activity  Molality  Activity     Gamma

   OH-                    1.046e-07   1.001e-07    -6.981    -7.000    -0.019
   H+                     1.042e-07   1.000e-07    -6.982    -7.000    -0.018
   H2O                    5.551e+01   9.999e-01     1.744         0         0
Cl               1.500e-03
   Cl-                    1.500e-03   1.436e-03    -2.824    -2.843    -0.019
H(0)             4.392e-40
   H2                     2.196e-40   2.197e-40   -39.658   -39.658         0
Na               1.500e-03
   Na+                    1.500e-03   1.437e-03    -2.824    -2.843    -0.019
   NaOH                   9.490e-11   9.493e-11   -10.023   -10.023         0
O(0)             1.727e-13
   O2                     8.636e-14   8.638e-14   -13.064   -13.064         0

------------------------------Saturation indices-------------------------------

	Phase               SI log IAP  log KT

	H2(g)           -36.51  -39.66   -3.15  H2
	H2O(g)           -1.51       0    1.51  H2O
	Halite           -7.27   -5.69    1.58  NaCl
	O2(g)           -10.10  -13.06   -2.96  O2

Time 0. Cell 18: x=              6	y=              1	z=              0
Using solution 18.

-----------------------------Solution composition------------------------------

	Elements           Molality       Moles

	Cl                1.600e-03   1.600e-03
	Na                1.600e-03   1.600e-03

----------------------------Description of solution----------------------------

                                       pH  =   7.000      Charge balance
                                       pe  =  11.270      Adjusted to redox equilibrium
                        Activity of water  =   1.000
                           Ionic strength  =   1.600e-03
                       Mass of water (kg)  =   1.000e+00
                 Total alkalinity (eq/kg)  =   5.097e-10
                    Total carbon (mol/kg)  =   0.000e+00
                       Total CO2 (mol/kg)  =   0.000e+00
                      Temperature (deg C)  =  25.000
                  Electrical balance (eq)  =  -5.097e-10
 Percent error, 100*(Cat-|An|)/(Cat+|An|)  =      0
                               Iterations  =  10
                                  Total H  = 1.110124e+02
                                  Total O  = 5.550622e+01

----------------------------Distribution of species----------------------------

                                                   Log       Log         Log 
   Species                 Molality    Activity  Molality  Activity     Gamma

   OH-                    1.047e-07   1.001e-07    -6.980    -7.000    -0.019
   H+                     1.043e-07   1.000e-07    -6.982    -7.000    -0.018
   H2O                    5.551e+01   9.999e-01     1.744         0         0
Cl               1.600e-03
   Cl-                    1.600e-03   1.530e-03    -2.796    -2.815    -0.019
H(0)             4.078e-40
   H2                     2.039e-40   2.040e-40   -39.691   -39.690         0
Na               1.600e-03
   Na+                    1.600e-03   1.531e-03    -2.796    -2.815    -0.019
   NaOH                   1.011e-10   1.011e-10    -9.995    -9.995         0
O(0)             2.003e-13
   O2                     1.001e-13   1.002e-13   -12.999   -12.999         0

------------------------------Saturation indices-------------------------------

	Phase               SI log IAP  log KT

	H2(g)           -36.54  -39.69   -3.15  H2
	H2O(g)           -1.51       0    1.51  H2O
	Halite           -7.21   -5.63    1.58  NaCl
	O2(g)           -10.04  -13.00   -2.96  O2

Time 0. Cell 19: x=              7	y=              1	z=              0
Using solution 19.

-----------------------------Solution composition------------------------------

	Elements           Molality       Moles

	Cl                1.700e-03   1.700e-03
	Na                1.700e-03   1.700e-03

----------------------------Description of solution----------------------------

                                       pH  =   7.000      Charge balance
                                       pe  =  11.298      Adjusted to redox equilibrium
                        Activity of water  =   1.000
                           Ionic strength  =   1.700e-03
                       Mass of water (kg)  =   1.000e+00
                 Total alkalinity (eq/kg)  =   5.336e-10
                    Total carbon (mol/kg)  =   0.000e+00
                       Total CO2 (mol/kg)  =   0.000e+00
                      Temperature (deg C)  =  25.000
                  Electrical balance (eq)  =  -5.336e-10
 Percent error, 100*(Cat-|An|)/(Cat+|An|)  =      0
                               Iterations  =  10
                                  Total H  = 1.110124e+02
                                  Total O  = 5.550622e+01

----------------------------Distribution of species----------------------------

                                                   Log       Log         Log 
   Species                 Molality    Activity  Molality  Activity     Gamma

   OH-                    1.048e-07   1.001e-07    -6.980    -7.000    -0.020
   H+                     1.044e-07   1.000e-07    -6.981    -7.000    -0.019
   H2O                    5.551e+01   9.999e-01     1.744         0         0
Cl               1.700e-03
   Cl-                    1.700e-03   1.623e-03    -2.770    -2.790    -0.020
H(0)             3.581e-40
   H2                     1.791e-40   1.791e-40   -39.747   -39.747         0
Na               1.700e-03
   Na+                    1.700e-03   1.624e-03    -2.770    -2.789    -0.020
   NaOH                   1.073e-10   1.073e-10    -9.970    -9.969         0
O(0)             2.597e-13
   O2                     1.299e-13   1.299e-13   -12.887   -12.886         0

------------------------------Saturation indices-------------------------------

	Phase               SI log IAP  log KT

	H2(g)           -36.60  -39.75   -3.15  H2
	H2O(g)           -1.51       0    1.51  H2O
	Halite           -7.16   -5.58    1.58  NaCl
	O2(g)            -9.93  -12.89   -2.96  O2

Time 0. Cell 20: x=              8	y=              1	z=              0
Using solution 20.

-----------------------------Solution composition------------------------------

	Elements           Molality       Moles

	Cl                1.800e-03   1.800e-03
	Na                1.800e-03   1.800e-03

----------------------------Description of solution----------------------------

                                       pH  =   7.000      Charge balance
                                       pe  =  11.325      Adjusted to redox equilibrium
                        Activity of water  =   1.000
                           Ionic strength  =   1.800e-03
                       Mass of water (kg)  =   1.000e+00
                 Total alkalinity (eq/kg)  =   5.576e-10
                    Total carbon (mol/kg)  =   0.000e+00
                       Total CO2 (mol/kg)  =   0.000e+00
                      Temperature (deg C)  =  25.000
                  Electrical balance (eq)  =  -5.576e-10
 Percent error, 100*(Cat-|An|)/(Cat+|An|)  =      0
                               Iterations  =  10
                                  Total H  = 1.110124e+02
                                  Total O  = 5.550622e+01

----------------------------Distribution of species----------------------------

                                                   Log       Log         Log 
   Species                 Molality    Activity  Molality  Activity     Gamma

   OH-                    1.050e-07   1.001e-07    -6.979    -7.000    -0.021
   H+                     1.045e-07   1.000e-07    -6.981    -7.000    -0.019
   H2O                    5.551e+01   9.999e-01     1.744         0         0
Cl               1.800e-03
   Cl-                    1.800e-03   1.717e-03    -2.745    -2.765    -0.021
H(0)             3.162e-40
   H2                     1.581e-40   1.582e-40   -39.801   -39.801         0
Na               1.800e-03
   Na+                    1.800e-03   1.718e-03    -2.745    -2.765    -0.020
   NaOH                   1.134e-10   1.135e-10    -9.945    -9.945         0
O(0)             3.330e-13
   O2                     1.665e-13   1.666e-13   -12.779   -12.778         0

------------------------------Saturation indices-------------------------------

	Phase               SI log IAP  log KT

	H2(g)           -36.65  -39.80   -3.15  H2
	H2O(g)           -1.51       0    1.51  H2O
	Halite           -7.11   -5.53    1.58  NaCl
	O2(g)            -9.82  -12.78   -2.96  O2

Time 0. Cell 21: x=              9	y=              1	z=              0
Using solution 21.

-----------------------------Solution composition------------------------------

	Elements           Molality       Moles

	Cl                1.900e-03   1.900e-03
	Na                1.900e-03   1.900e-03

----------------------------Description of solution----------------------------

                                       pH  =   7.000      Charge balance
                                       pe  =  11.464      Adjusted to redox equilibrium
                        Activity of water  =   1.000
                           Ionic strength  =   1.900e-03
                       Mass of water (kg)  =   1.000e+00
                 Total alkalinity (eq/kg)  =   5.816e-10
                    Total carbon (mol/kg)  =   0.000e+00
                       Total CO2 (mol/kg)  =   0.000e+00
                      Temperature (deg C)  =  25.000
                  Electrical balance (eq)  =  -5.816e-10
 Percent error, 100*(Cat-|An|)/(Cat+|An|)  =      0
                               Iterations  =   9
                                  Total H  = 1.110124e+02
                                  Total O  = 5.550622e+01

----------------------------Distribution of species----------------------------

                                                   Log       Log         Log 
   Species                 Molality    Activity  Molality  Activity     Gamma

   OH-                    1.051e-07   1.001e-07    -6.978    -7.000    -0.021
   H+                     1.046e-07   1.000e-07    -6.980    -7.000    -0.020
   H2O                    5.551e+01   9.999e-01     1.744         0         0
Cl               1.900e-03
   Cl-                    1.900e-03   1.810e-03    -2.721    -2.742    -0.021
H(0)             0.000e+00
   H2                     0.000e+00   0.000e+00   -40.078   -40.078         0
Na               1.900e-03
   Na+                    1.900e-03   1.811e-03    -2.721    -2.742    -0.021
   NaOH                   1.196e-10   1.196e-10    -9.922    -9.922         0
O(0)             1.192e-12
   O2                     5.962e-13   5.965e-13   -12.225   -12.224         0

------------------------------Saturation indices-------------------------------

	Phase               SI log IAP  log KT

	H2(g)           -36.93  -40.08   -3.15  H2
	H2O(g)           -1.51       0    1.51  H2O
	Halite           -7.07   -5.48    1.58  NaCl
	O2(g)            -9.26  -12.22   -2.96  O2

Time 0. Cell 22: x=             10	y=              1	z=              0
Using solution 22.

-----------------------------Solution composition------------------------------

	Elements           Molality       Moles

	Cl                2.000e-03   2.000e-03
	Na                2.000e-03   2.000e-03

----------------------------Description of solution----------------------------

                                       pH  =   7.000      Charge balance
                                       pe  =   4.000      Adjusted to redox equilibrium
                        Activity of water  =   1.000
                           Ionic strength  =   2.000e-03
                       Mass of water (kg)  =   1.000e+00
                 Total alkalinity (eq/kg)  =   6.056e-10
                    Total carbon (mol/kg)  =   0.000e+00
                       Total CO2 (mol/kg)  =   0.000e+00
                      Temperature (deg C)  =  25.000
                  Electrical balance (eq)  =  -6.056e-10
 Percent error, 100*(Cat-|An|)/(Cat+|An|)  =      0
                               Iterations  =   0
                                  Total H  = 1.110124e+02
                                  Total O  = 5.550622e+01

----------------------------Distribution of species----------------------------

                                                   Log       Log         Log 
   Species                 Molality    Activity  Molality  Activity     Gamma

   OH-                    1.052e-07   1.001e-07    -6.978    -7.000    -0.022
   H+                     1.047e-07   1.000e-07    -6.980    -7.000    -0.020
   H2O                    5.551e+01   9.999e-01     1.744         0         0
Cl               2.000e-03
   Cl-                    2.000e-03   1.903e-03    -2.699    -2.721    -0.022
H(0)             1.415e-25
   H2                     7.076e-26   7.079e-26   -25.150   -25.150         0
Na               2.000e-03
   Na+                    2.000e-03   1.904e-03    -2.699    -2.720    -0.021
   NaOH                   1.257e-10   1.258e-10    -9.901    -9.900         0
O(0)             0.000e+00
   O2                     0.000e+00   0.000e+00   -42.080   -42.080         0

------------------------------Saturation indices-------------------------------

	Phase               SI log IAP  log KT

	H2(g)           -22.00  -25.15   -3.15  H2
	H2O(g)           -1.51       0    1.51  H2O
	Halite           -7.02   -5.44    1.58  NaCl
	O2(g)           -39.12  -42.08   -2.96  O2

Time 0. Cell 23: x=              0	y=              2	z=              0
Using solution 23.

-----------------------------Solution composition------------------------------

	Elements           Molality       Moles

	Cl                1.000e-03   1.000e-03
	Na                1.000e-03   1.000e-03

----------------------------Description of solution----------------------------

                                       pH  =   7.000      Charge balance
                                       pe  =   4.000      Adjusted to redox equilibrium
                        Activity of water  =   1.000
                           Ionic strength  =   1.000e-03
                       Mass of water (kg)  =   1.000e+00
                 Total alkalinity (eq/kg)  =   3.658e-10
                    Total carbon (mol/kg)  =   0.000e+00
                       Total CO2 (mol/kg)  =   0.000e+00
                      Temperature (deg C)  =  25.000
                  Electrical balance (eq)  =  -3.658e-10
 Percent error, 100*(Cat-|An|)/(Cat+|An|)  =      0
                               Iterations  =   0
                                  Total H  = 1.110124e+02
                                  Total O  = 5.550622e+01

----------------------------Distribution of species----------------------------

                                                   Log       Log         Log 
   Species                 Molality    Activity  Molality  Activity     Gamma

   OH-                    1.038e-07   1.001e-07    -6.984    -7.000    -0.016
   H+                     1.034e-07   1.000e-07    -6.985    -7.000    -0.015
   H2O                    5.551e+01   1.000e+00     1.744         0         0
Cl               1.000e-03
   Cl-                    1.000e-03   9.649e-04    -3.000    -3.016    -0.016
H(0)             1.416e-25
   H2                     7.078e-26   7.079e-26   -25.150   -25.150         0
Na               1.000e-03
   Na+                    1.000e-03   9.652e-04    -3.000    -3.015    -0.015
   NaOH                   6.375e-11   6.377e-11   -10.196   -10.195         0
O(0)             0.000e+00
   O2                     0.000e+00   0.000e+00   -42.080   -42.080         0

------------------------------Saturation indices-------------------------------

	Phase               SI log IAP  log KT

	H2(g)           -22.00  -25.15   -3.15  H2
	H2O(g)           -1.51       0    1.51  H2O
	Halite           -7.61   -6.03    1.58  NaCl
	O2(g)           -39.12  -42.08   -2.96  O2

Time 0. Cell 24: x=              1	y=              2	z=              0
Using solution 24.

-----------------------------Solution composition------------------------------

	Elements           Molality       Moles

	Cl                1.100e-03   1.100e-03
	Na                1.100e-03   1.100e-03

----------------------------Description of solution----------------------------

                                       pH  =   7.000      Charge balance
                                       pe  =  10.804      Adjusted to redox equilibrium
                        Activity of water  =   1.000
                           Ionic strength  =   1.100e-03
                       Mass of water (kg)  =   1.000e+00
                 Total alkalinity (eq/kg)  =   3.898e-10
                    Total carbon (mol/kg)  =   0.000e+00
                       Total CO2 (mol/kg)  =   0.000e+00
                      Temperature (deg C)  =  25.000
                  Electrical balance (eq)  =  -3.898e-10
 Percent error, 100*(Cat-|An|)/(Cat+|An|)  =      0
                               Iterations  =  13
                                  Total H  = 1.110124e+02
                                  Total O  = 5.550622e+01

----------------------------Distribution of species----------------------------

                                                   Log       Log         Log 
   Species                 Molality    Activity  Molality  Activity     Gamma

   OH-                    1.039e-07   1.001e-07    -6.983    -7.000    -0.016
   H+                     1.036e-07   1.000e-07    -6.985    -7.000    -0.015
   H2O                    5.551e+01   1.000e+00     1.744         0         0
Cl               1.100e-03
   Cl-                    1.100e-03   1.060e-03    -2.959    -2.975    -0.016
H(0)             3.498e-39
   H2                     1.749e-39   1.750e-39   -38.757   -38.757         0
Na               1.100e-03
   Na+                    1.100e-03   1.060e-03    -2.959    -2.975    -0.016
   NaOH                   7.001e-11   7.003e-11   -10.155   -10.155         0
O(0)             2.723e-15
   O2                     1.361e-15   1.362e-15   -14.866   -14.866         0

------------------------------Saturation indices-------------------------------

	Phase               SI log IAP  log KT

	H2(g)           -35.61  -38.76   -3.15  H2
	H2O(g)           -1.51       0    1.51  H2O
	Halite           -7.53   -5.95    1.58  NaCl
	O2(g)           -11.91  -14.87   -2.96  O2

Time 0. Cell 25: x=              2	y=              2	z=              0
Using solution 25.

-----------------------------Solution composition------------------------------

	Elements           Molality       Moles

	Cl                1.200e-03   1.200e-03
	Na                1.200e-03   1.200e-03

----------------------------Description of solution----------------------------

                                       pH  =   7.000      Charge balance
                                       pe  =  10.922      Adjusted to redox equilibrium
                        Activity of water  =   1.000
                           Ionic strength  =   1.200e-03
                       Mass of water (kg)  =   1.000e+00
                 Total alkalinity (eq/kg)  =   4.137e-10
                    Total carbon (mol/kg)  =   0.000e+00
                       Total CO2 (mol/kg)  =   0.000e+00
                      Temperature (deg C)  =  25.000
                  Electrical balance (eq)  =  -4.137e-10
 Percent error, 100*(Cat-|An|)/(Cat+|An|)  =      0
                               Iterations  =  13
                                  Total H  = 1.110124e+02
                                  Total O  = 5.550622e+01

----------------------------Distribution of species----------------------------

                                                   Log       Log         Log 
   Species                 Molality    Activity  Molality  Activity     Gamma

   OH-                    1.041e-07   1.001e-07    -6.983    -7.000    -0.017
   H+                     1.038e-07   1.000e-07    -6.984    -7.000    -0.016
   H2O                    5.551e+01   1.000e+00     1.744         0         0
Cl               1.200e-03
   Cl-                    1.200e-03   1.154e-03    -2.921    -2.938    -0.017
H(0)             2.024e-39
   H2                     1.012e-39   1.012e-39   -38.995   -38.995         0
Na               1.200e-03
   Na+                    1.200e-03   1.155e-03    -2.921    -2.938    -0.017
   NaOH                   7.625e-11   7.627e-11   -10.118   -10.118         0
O(0)             8.135e-15
   O2                     4.067e-15   4.069e-15   -14.391   -14.391         0

------------------------------Saturation indices-------------------------------

	Phase               SI log IAP  log KT

	H2(g)           -35.84  -38.99   -3.15  H2
	H2O(g)           -1.51       0    1.51  H2O
	Halite           -7.46   -5.88    1.58  NaCl
	O2(g)           -11.43  -14.39   -2.96  O2

Time 0. Cell 26: x=              3	y=              2	z=              0
Using solution 26.

-----------------------------Solution composition------------------------------

	Elements           Molality       Moles

	Cl                1.300e-03   1.300e-03
	Na                1.300e-03   1.300e-03

----------------------------Description of solution----------------------------

                                       pH  =   7.000      Charge balance
                                       pe  =  10.954      Adjusted to redox equilibrium
                        Activity of water  =   1.000
                           Ionic strength  =   1.300e-03
                       Mass of water (kg)  =   1.000e+00
                 Total alkalinity (eq/kg)  =   4.377e-10
                    Total carbon (mol/kg)  =   0.000e+00
                       Total CO2 (mol/kg)  =   0.000e+00
                      Temperature (deg C)  =  25.000
                  Electrical balance (eq)  =  -4.377e-10
 Percent error, 100*(Cat-|An|)/(Cat+|An|)  =      0
                               Iterations  =  12
                                  Total H  = 1.110124e+02
                                  Total O  = 5.550622e+01

----------------------------Distribution of species----------------------------

                                                   Log       Log         Log 
   Species                 Molality    Activity  Molality  Activity     Gamma

   OH-                    1.043e-07   1.001e-07    -6.982    -7.000    -0.018
   H+                     1.039e-07   1.000e-07    -6.983    -7.000    -0.017
   H2O                    5.551e+01   1.000e+00     1.744         0         0
Cl               1.300e-03
   Cl-                    1.300e-03   1.248e-03    -2.886    -2.904    -0.018
H(0)             1.748e-39
   H2                     8.739e-40   8.742e-40   -39.059   -39.058         0
Na               1.300e-03
   Na+                    1.300e-03   1.249e-03    -2.886    -2.903    -0.017
   NaOH                   8.248e-11   8.251e-11   -10.084   -10.084         0
O(0)             1.091e-14
   O2                     5.453e-15   5.454e-15   -14.263   -14.263         0

------------------------------Saturation indices-------------------------------

	Phase               SI log IAP  log KT

	H2(g)           -35.91  -39.06   -3.15  H2
	H2O(g)           -1.51       0    1.51  H2O
	Halite           -7.39   -5.81    1.58  NaCl
	O2(g)           -11.30  -14.26   -2.96  O2

Time 0. Cell 27: x=              4	y=              2	z=              0
Using solution 27.

-----------------------------Solution composition------------------------------

	Elements           Molality       Moles

	Cl                1.400e-03   1.400e-03
	Na                1.400e-03   1.400e-03

----------------------------Description of solution----------------------------

                                       pH  =   7.000      Charge balance
                                       pe  =  11.089      Adjusted to redox equilibrium
                        Activity of water  =   1.000
                           Ionic strength  =   1.400e-03
                       Mass of water (kg)  =   1.000e+00
                 Total alkalinity (eq/kg)  =   4.617e-10
                    Total carbon (mol/kg)  =   0.000e+00
                       Total CO2 (mol/kg)  =   0.000e+00
                      Temperature (deg C)  =  25.000
                  Electrical balance (eq)  =  -4.617e-10
 Percent error, 100*(Cat-|An|)/(Cat+|An|)  =      0
                               Iterations  =  11
                                  Total H  = 1.110124e+02
                                  Total O  = 5.550622e+01

----------------------------Distribution of species----------------------------

                                                   Log       Log         Log 
   Species                 Molality    Activity  Molality  Activity     Gamma

   OH-                    1.044e-07   1.001e-07    -6.981    -7.000    -0.018
   H+                     1.040e-07   1.000e-07    -6.983    -7.000    -0.017
   H2O                    5.551e+01   1.000e+00     1.744         0         0
Cl               1.400e-03
   Cl-                    1.400e-03   1.342e-03    -2.854    -2.872    -0.018
H(0)             9.376e-40
   H2                     4.688e-40   4.689e-40   -39.329   -39.329         0
Na               1.400e-03
   Na+                    1.400e-03   1.343e-03    -2.854    -2.872    -0.018
   NaOH                   8.870e-11   8.872e-11   -10.052   -10.052         0
O(0)             3.790e-14
   O2                     1.895e-14   1.895e-14   -13.722   -13.722         0

------------------------------Saturation indices-------------------------------

	Phase               SI log IAP  log KT

	H2(g)           -36.18  -39.33   -3.15  H2
	H2O(g)           -1.51       0    1.51  H2O
	Halite           -7.33   -5.74    1.58  NaCl
	O2(g)           -10.76  -13.72   -2.96  O2

Time 0. Cell 28: x=              5	y=              2	z=              0
Using solution 28.

-----------------------------Solution composition------------------------------

	Elements           Molality       Moles

	Cl                1.500e-03   1.500e-03
	Na                1.500e-03   1.500e-03

----------------------------Description of solution----------------------------

                                       pH  =   7.000      Charge balance
                                       pe  =  11.254      Adjusted to redox equilibrium
                        Activity of water  =   1.000
                           Ionic strength  =   1.500e-03
                       Mass of water (kg)  =   1.000e+00
                 Total alkalinity (eq/kg)  =   4.857e-10
                    Total carbon (mol/kg)  =   0.000e+00
                       Total CO2 (mol/kg)  =   0.000e+00
                      Temperature (deg C)  =  25.000
                  Electrical balance (eq)  =  -4.857e-10
 Percent error, 100*(Cat-|An|)/(Cat+|An|)  =      0
                               Iterations  =  10
                                  Total H  = 1.110124e+02
                                  Total O  = 5.550622e+01

----------------------------Distribution of species----------------------------

                                                   Log       Log         Log 
   Species                 Molality    Activity  Molality  Activity     Gamma

   OH-                    1.046e-07   1.001e-07    -6.981    -7.000    -0.019
   H+                     1.042e-07   1.000e-07    -6.982    -7.000    -0.018
   H2O                    5.551e+01   9.999e-01     1.744         0         0
Cl               1.500e-03
   Cl-                    1.500e-03   1.436e-03    -2.824    -2.843    -0.019
H(0)             4.392e-40
   H2                     2.196e-40   2.197e-40   -39.658   -39.658         0
Na               1.500e-03
   Na+                    1.500e-03   1.437e-03    -2.824    -2.843    -0.019
   NaOH                   9.490e-11   9.493e-11   -10.023   -10.023         0
O(0)             1.727e-13
   O2                     8.636e-14   8.638e-14   -13.064   -13.064         0

------------------------------Saturation indices-------------------------------

	Phase               SI log IAP  log KT

	H2(g)           -36.51  -39.66   -3.15  H2
	H2O(g)           -1.51       0    1.51  H2O
	Halite           -7.27   -5.69    1.58  NaCl
	O2(g)           -10.10  -13.06   -2.96  O2

Time 0. Cell 29: x=              6	y=              2	z=              0
Using solution 29.

-----------------------------Solution composition------------------------------

	Elements           Molality       Moles

	Cl                1.600e-03   1.600e-03
	Na                1.600e-03   1.600e-03

----------------------------Description of solution----------------------------

                                       pH  =   7.000      Charge balance
                                       pe  =  11.270      Adjusted to redox equilibrium
                        Activity of water  =   1.000
                           Ionic strength  =   1.600e-03
                       Mass of water (kg)  =   1.000e+00
                 Total alkalinity (eq/kg)  =   5.097e-10
                    Total carbon (mol/kg)  =   0.000e+00
                       Total CO2 (mol/kg)  =   0.000e+00
                      Temperature (deg C)  =  25.000
                  Electrical balance (eq)  =  -5.097e-10
 Percent error, 100*(Cat-|An|)/(Cat+|An|)  =      0
                               Iterations  =  10
                                  Total H  = 1.110124e+02
                                  Total O  = 5.550622e+01

----------------------------Distribution of species----------------------------

                                                   Log       Log         Log 
   Species                 Molality    Activity  Molality  Activity     Gamma

   OH-                    1.047e-07   1.001e-07    -6.980    -7.000    -0.019
   H+                     1.043e-07   1.000e-07    -6.982    -7.000    -0.018
   H2O                    5.551e+01   9.999e-01     1.744         0         0
Cl               1.600e-03
   Cl-                    1.600e-03   1.530e-03    -2.796    -2.815    -0.019
H(0)             4.078e-40
   H2                     2.039e-40   2.040e-40   -39.691   -39.690         0
Na               1.600e-03
   Na+                    1.600e-03   1.531e-03    -2.796    -2.815    -0.019
   NaOH                   1.011e-10   1.011e-10    -9.995    -9.995         0
O(0)             2.003e-13
   O2                     1.001e-13   1.002e-13   -12.999   -12.999         0

------------------------------Saturation indices-------------------------------

	Phase               SI log IAP  log KT

	H2(g)           -36.54  -39.69   -3.15  H2
	H2O(g)           -1.51       0    1.51  H2O
	Halite           -7.21   -5.63    1.58  NaCl
	O2(g)           -10.04  -13.00   -2.96  O2

Time 0. Cell 30: x=              7	y=              2	z=              0
Using solution 30.

-----------------------------Solution composition------------------------------

	Elements           Molality       Moles

	Cl                1.700e-03   1.700e-03
	Na                1.700e-03   1.700e-03

----------------------------Description of solution----------------------------

                                       pH  =   7.000      Charge balance
                                       pe  =  11.298      Adjusted to redox equilibrium
                        Activity of water  =   1.000
                           Ionic strength  =   1.700e-03
                       Mass of water (kg)  =   1.000e+00
                 Total alkalinity (eq/kg)  =   5.336e-10
                    Total carbon (mol/kg)  =   0.000e+00
                       Total CO2 (mol/kg)  =   0.000e+00
                      Temperature (deg C)  =  25.000
                  Electrical balance (eq)  =  -5.336e-10
 Percent error, 100*(Cat-|An|)/(Cat+|An|)  =      0
                               Iterations  =  10
                                  Total H  = 1.110124e+02
                                  Total O  = 5.550622e+01

----------------------------Distribution of species----------------------------

                                                   Log       Log         Log 
   Species                 Molality    Activity  Molality  Activity     Gamma

   OH-                    1.048e-07   1.001e-07    -6.980    -7.000    -0.020
   H+                     1.044e-07   1.000e-07    -6.981    -7.000    -0.019
   H2O                    5.551e+01   9.999e-01     1.744         0         0
Cl               1.700e-03
   Cl-                    1.700e-03   1.623e-03    -2.770    -2.790    -0.020
H(0)             3.581e-40
   H2                     1.791e-40   1.791e-40   -39.747   -39.747         0
Na               1.700e-03
   Na+                    1.700e-03   1.624e-03    -2.770    -2.789    -0.020
   NaOH                   1.073e-10   1.073e-10    -9.970    -9.969         0
O(0)             2.597e-13
   O2                     1.299e-13   1.299e-13   -12.887   -12.886         0

[...]
	H2O(g)           -1.51       0    1.51  H2O
	Halite           -7.46   -5.88    1.58  NaCl
	O2(g)           -11.44  -14.40   -2.96  O2

Time 0.5. Cell 114: x=              3	y=             10	z=              0
Using solution 114.

-----------------------------Solution composition------------------------------

	Elements           Molality       Moles

	Cl                1.295e-03   1.295e-03
	Na                1.295e-03   1.295e-03

----------------------------Description of solution----------------------------

                                       pH  =   7.000      Charge balance
                                       pe  =  10.933      Adjusted to redox equilibrium
                        Activity of water  =   1.000
                           Ionic strength  =   1.295e-03
                       Mass of water (kg)  =   1.000e+00
                 Total alkalinity (eq/kg)  =   4.365e-10
                    Total carbon (mol/kg)  =   0.000e+00
                       Total CO2 (mol/kg)  =   0.000e+00
                      Temperature (deg C)  =  25.000
                  Electrical balance (eq)  =  -4.367e-10
 Percent error, 100*(Cat-|An|)/(Cat+|An|)  =      0
                               Iterations  =   2
                                  Total H  = 1.110124e+02
                                  Total O  = 5.550622e+01

----------------------------Distribution of species----------------------------

                                                   Log       Log         Log 
   Species                 Molality    Activity  Molality  Activity     Gamma

   OH-                    1.042e-07   1.001e-07    -6.982    -7.000    -0.018
   H+                     1.039e-07   1.000e-07    -6.983    -7.000    -0.017
   H2O                    5.551e+01   1.000e+00     1.744         0         0
Cl               1.295e-03
   Cl-                    1.295e-03   1.244e-03    -2.888    -2.905    -0.018
H(0)             1.931e-39
   H2                     9.657e-40   9.659e-40   -39.015   -39.015         0
Na               1.295e-03
   Na+                    1.295e-03   1.244e-03    -2.888    -2.905    -0.017
   NaOH                   8.217e-11   8.219e-11   -10.085   -10.085         0
O(0)             8.932e-15
   O2                     4.466e-15   4.467e-15   -14.350   -14.350         0

------------------------------Saturation indices-------------------------------

	Phase               SI log IAP  log KT

	H2(g)           -35.87  -39.02   -3.15  H2
	H2O(g)           -1.51       0    1.51  H2O
	Halite           -7.39   -5.81    1.58  NaCl
	O2(g)           -11.39  -14.35   -2.96  O2

Time 0.5. Cell 115: x=              4	y=             10	z=              0
Using solution 115.

-----------------------------Solution composition------------------------------

	Elements           Molality       Moles

	Cl                1.395e-03   1.395e-03
	Na                1.395e-03   1.395e-03

----------------------------Description of solution----------------------------

                                       pH  =   7.000      Charge balance
                                       pe  =  11.083      Adjusted to redox equilibrium
                        Activity of water  =   1.000
                           Ionic strength  =   1.395e-03
                       Mass of water (kg)  =   1.000e+00
                 Total alkalinity (eq/kg)  =   4.605e-10
                    Total carbon (mol/kg)  =   0.000e+00
                       Total CO2 (mol/kg)  =   0.000e+00
                      Temperature (deg C)  =  25.000
                  Electrical balance (eq)  =  -4.607e-10
 Percent error, 100*(Cat-|An|)/(Cat+|An|)  =      0
                               Iterations  =   2
                                  Total H  = 1.110124e+02
                                  Total O  = 5.550622e+01

----------------------------Distribution of species----------------------------

                                                   Log       Log         Log 
   Species                 Molality    Activity  Molality  Activity     Gamma

   OH-                    1.044e-07   1.001e-07    -6.981    -7.000    -0.018
   H+                     1.040e-07   1.000e-07    -6.983    -7.000    -0.017
   H2O                    5.551e+01   1.000e+00     1.744         0         0
Cl               1.395e-03
   Cl-                    1.395e-03   1.338e-03    -2.855    -2.874    -0.018
H(0)             9.660e-40
   H2                     4.830e-40   4.832e-40   -39.316   -39.316         0
Na               1.395e-03
   Na+                    1.395e-03   1.338e-03    -2.855    -2.873    -0.018
   NaOH                   8.839e-11   8.841e-11   -10.054   -10.053         0
O(0)             3.570e-14
   O2                     1.785e-14   1.785e-14   -13.748   -13.748         0

------------------------------Saturation indices-------------------------------

	Phase               SI log IAP  log KT

	H2(g)           -36.17  -39.32   -3.15  H2
	H2O(g)           -1.51       0    1.51  H2O
	Halite           -7.33   -5.75    1.58  NaCl
	O2(g)           -10.79  -13.75   -2.96  O2

Time 0.5. Cell 116: x=              5	y=             10	z=              0
Using solution 116.

-----------------------------Solution composition------------------------------

	Elements           Molality       Moles

	Cl                1.495e-03   1.495e-03
	Na                1.495e-03   1.495e-03

----------------------------Description of solution----------------------------

                                       pH  =   7.000      Charge balance
                                       pe  =  11.247      Adjusted to redox equilibrium
                        Activity of water  =   1.000
                           Ionic strength  =   1.495e-03
                       Mass of water (kg)  =   1.000e+00
                 Total alkalinity (eq/kg)  =   4.845e-10
                    Total carbon (mol/kg)  =   0.000e+00
                       Total CO2 (mol/kg)  =   0.000e+00
                      Temperature (deg C)  =  25.000
                  Electrical balance (eq)  =  -4.846e-10
 Percent error, 100*(Cat-|An|)/(Cat+|An|)  =      0
                               Iterations  =   2
                                  Total H  = 1.110124e+02
                                  Total O  = 5.550622e+01

----------------------------Distribution of species----------------------------

                                                   Log       Log         Log 
   Species                 Molality    Activity  Molality  Activity     Gamma

   OH-                    1.045e-07   1.001e-07    -6.981    -7.000    -0.019
   H+                     1.042e-07   1.000e-07    -6.982    -7.000    -0.018
   H2O                    5.551e+01   9.999e-01     1.744         0         0
Cl               1.495e-03
   Cl-                    1.495e-03   1.432e-03    -2.825    -2.844    -0.019
H(0)             4.538e-40
   H2                     2.269e-40   2.270e-40   -39.644   -39.644         0
Na               1.495e-03
   Na+                    1.495e-03   1.432e-03    -2.825    -2.844    -0.019
   NaOH                   9.459e-11   9.462e-11   -10.024   -10.024         0
O(0)             1.617e-13
   O2                     8.087e-14   8.090e-14   -13.092   -13.092         0

------------------------------Saturation indices-------------------------------

	Phase               SI log IAP  log KT

	H2(g)           -36.49  -39.64   -3.15  H2
	H2O(g)           -1.51       0    1.51  H2O
	Halite           -7.27   -5.69    1.58  NaCl
	O2(g)           -10.13  -13.09   -2.96  O2

Time 0.5. Cell 117: x=              6	y=             10	z=              0
Using solution 117.

-----------------------------Solution composition------------------------------

	Elements           Molality       Moles

	Cl                1.595e-03   1.595e-03
	Na                1.595e-03   1.595e-03

----------------------------Description of solution----------------------------

                                       pH  =   7.000      Charge balance
                                       pe  =  11.268      Adjusted to redox equilibrium
                        Activity of water  =   1.000
                           Ionic strength  =   1.595e-03
                       Mass of water (kg)  =   1.000e+00
                 Total alkalinity (eq/kg)  =   5.085e-10
                    Total carbon (mol/kg)  =   0.000e+00
                       Total CO2 (mol/kg)  =   0.000e+00
                      Temperature (deg C)  =  25.000
                  Electrical balance (eq)  =  -5.086e-10
 Percent error, 100*(Cat-|An|)/(Cat+|An|)  =      0
                               Iterations  =   2
                                  Total H  = 1.110124e+02
                                  Total O  = 5.550622e+01

----------------------------Distribution of species----------------------------

                                                   Log       Log         Log 
   Species                 Molality    Activity  Molality  Activity     Gamma

   OH-                    1.047e-07   1.001e-07    -6.980    -7.000    -0.019
   H+                     1.043e-07   1.000e-07    -6.982    -7.000    -0.018
   H2O                    5.551e+01   9.999e-01     1.744         0         0
Cl               1.595e-03
   Cl-                    1.595e-03   1.525e-03    -2.797    -2.817    -0.019
H(0)             4.126e-40
   H2                     2.063e-40   2.064e-40   -39.686   -39.685         0
Na               1.595e-03
   Na+                    1.595e-03   1.526e-03    -2.797    -2.816    -0.019
   NaOH                   1.008e-10   1.008e-10    -9.997    -9.996         0
O(0)             1.957e-13
   O2                     9.785e-14   9.789e-14   -13.009   -13.009         0

------------------------------Saturation indices-------------------------------

	Phase               SI log IAP  log KT

	H2(g)           -36.54  -39.69   -3.15  H2
	H2O(g)           -1.51       0    1.51  H2O
	Halite           -7.22   -5.63    1.58  NaCl
	O2(g)           -10.05  -13.01   -2.96  O2

Time 0.5. Cell 118: x=              7	y=             10	z=              0
Using solution 118.

-----------------------------Solution composition------------------------------

	Elements           Molality       Moles

	Cl                1.695e-03   1.695e-03
	Na                1.695e-03   1.695e-03

----------------------------Description of solution----------------------------

                                       pH  =   7.000      Charge balance
                                       pe  =  11.295      Adjusted to redox equilibrium
                        Activity of water  =   1.000
                           Ionic strength  =   1.695e-03
                       Mass of water (kg)  =   1.000e+00
                 Total alkalinity (eq/kg)  =   5.324e-10
                    Total carbon (mol/kg)  =   0.000e+00
                       Total CO2 (mol/kg)  =   0.000e+00
                      Temperature (deg C)  =  25.000
                  Electrical balance (eq)  =  -5.326e-10
 Percent error, 100*(Cat-|An|)/(Cat+|An|)  =      0
                               Iterations  =   2
                                  Total H  = 1.110124e+02
                                  Total O  = 5.550622e+01

----------------------------Distribution of species----------------------------

                                                   Log       Log         Log 
   Species                 Molality    Activity  Molality  Activity     Gamma

   OH-                    1.048e-07   1.001e-07    -6.980    -7.000    -0.020
   H+                     1.044e-07   1.000e-07    -6.981    -7.000    -0.019
   H2O                    5.551e+01   9.999e-01     1.744         0         0
Cl               1.695e-03
   Cl-                    1.695e-03   1.619e-03    -2.771    -2.791    -0.020
H(0)             3.644e-40
   H2                     1.822e-40   1.823e-40   -39.739   -39.739         0
Na               1.695e-03
   Na+                    1.695e-03   1.620e-03    -2.771    -2.791    -0.020
   NaOH                   1.070e-10   1.070e-10    -9.971    -9.971         0
O(0)             2.509e-13
   O2                     1.254e-13   1.255e-13   -12.902   -12.901         0

------------------------------Saturation indices-------------------------------

	Phase               SI log IAP  log KT

	H2(g)           -36.59  -39.74   -3.15  H2
	H2O(g)           -1.51       0    1.51  H2O
	Halite           -7.16   -5.58    1.58  NaCl
	O2(g)            -9.94  -12.90   -2.96  O2

Time 0.5. Cell 119: x=              8	y=             10	z=              0
Using solution 119.

-----------------------------Solution composition------------------------------

	Elements           Molality       Moles

	Cl                1.795e-03   1.795e-03
	Na                1.795e-03   1.795e-03

----------------------------Description of solution----------------------------

                                       pH  =   7.000      Charge balance
                                       pe  =  11.321      Adjusted to redox equilibrium
                        Activity of water  =   1.000
                           Ionic strength  =   1.795e-03
                       Mass of water (kg)  =   1.000e+00
                 Total alkalinity (eq/kg)  =   5.564e-10
                    Total carbon (mol/kg)  =   0.000e+00
                       Total CO2 (mol/kg)  =   0.000e+00
                      Temperature (deg C)  =  25.000
                  Electrical balance (eq)  =  -5.566e-10
 Percent error, 100*(Cat-|An|)/(Cat+|An|)  =      0
                               Iterations  =   2
                                  Total H  = 1.110124e+02
                                  Total O  = 5.550622e+01

----------------------------Distribution of species----------------------------

                                                   Log       Log         Log 
   Species                 Molality    Activity  Molality  Activity     Gamma

   OH-                    1.050e-07   1.001e-07    -6.979    -7.000    -0.021
   H+                     1.045e-07   1.000e-07    -6.981    -7.000    -0.019
   H2O                    5.551e+01   9.999e-01     1.744         0         0
Cl               1.795e-03
   Cl-                    1.795e-03   1.712e-03    -2.746    -2.766    -0.021
H(0)             3.225e-40
   H2                     1.612e-40   1.613e-40   -39.793   -39.792         0
Na               1.795e-03
   Na+                    1.795e-03   1.713e-03    -2.746    -2.766    -0.020
   NaOH                   1.131e-10   1.132e-10    -9.946    -9.946         0
O(0)             3.202e-13
   O2                     1.601e-13   1.602e-13   -12.796   -12.795         0

------------------------------Saturation indices-------------------------------

	Phase               SI log IAP  log KT

	H2(g)           -36.64  -39.79   -3.15  H2
	H2O(g)           -1.51       0    1.51  H2O
	Halite           -7.11   -5.53    1.58  NaCl
	O2(g)            -9.84  -12.80   -2.96  O2

Time 0.5. Cell 120: x=              9	y=             10	z=              0
Using solution 120.

-----------------------------Solution composition------------------------------

	Elements           Molality       Moles

	Cl                1.895e-03   1.895e-03
	Na                1.895e-03   1.895e-03

----------------------------Description of solution----------------------------

                                       pH  =   7.000      Charge balance
                                       pe  =  11.463      Adjusted to redox equilibrium
                        Activity of water  =   1.000
                           Ionic strength  =   1.895e-03
                       Mass of water (kg)  =   1.000e+00
                 Total alkalinity (eq/kg)  =   5.804e-10
                    Total carbon (mol/kg)  =   0.000e+00
                       Total CO2 (mol/kg)  =   0.000e+00
                      Temperature (deg C)  =  25.000
                  Electrical balance (eq)  =  -5.806e-10
 Percent error, 100*(Cat-|An|)/(Cat+|An|)  =      0
                               Iterations  =   2
                                  Total H  = 1.110124e+02
                                  Total O  = 5.550622e+01

----------------------------Distribution of species----------------------------

                                                   Log       Log         Log 
   Species                 Molality    Activity  Molality  Activity     Gamma

   OH-                    1.051e-07   1.001e-07    -6.978    -7.000    -0.021
   H+                     1.046e-07   1.000e-07    -6.980    -7.000    -0.020
   H2O                    5.551e+01   9.999e-01     1.744         0         0
Cl               1.895e-03
   Cl-                    1.895e-03   1.805e-03    -2.722    -2.743    -0.021
H(0)             0.000e+00
   H2                     0.000e+00   0.000e+00   -40.077   -40.076         0
Na               1.895e-03
   Na+                    1.895e-03   1.806e-03    -2.722    -2.743    -0.021
   NaOH                   1.193e-10   1.193e-10    -9.923    -9.923         0
O(0)             1.184e-12
   O2                     5.921e-13   5.924e-13   -12.228   -12.227         0

------------------------------Saturation indices-------------------------------

	Phase               SI log IAP  log KT

	H2(g)           -36.93  -40.08   -3.15  H2
	H2O(g)           -1.51       0    1.51  H2O
	Halite           -7.07   -5.49    1.58  NaCl
	O2(g)            -9.27  -12.23   -2.96  O2

Time 0.5. Cell 121: x=             10	y=             10	z=              0
Using solution 121.

-----------------------------Solution composition------------------------------

	Elements           Molality       Moles

	Cl                1.994e-03   1.994e-03
	Na                1.994e-03   1.994e-03

----------------------------Description of solution----------------------------

                                       pH  =   7.000      Charge balance
                                       pe  =  11.692      Adjusted to redox equilibrium
                        Activity of water  =   1.000
                           Ionic strength  =   1.994e-03
                       Mass of water (kg)  =   1.000e+00
                 Total alkalinity (eq/kg)  =   6.041e-10
                    Total carbon (mol/kg)  =   0.000e+00
                       Total CO2 (mol/kg)  =   0.000e+00
                      Temperature (deg C)  =  25.000
                  Electrical balance (eq)  =  -6.044e-10
 Percent error, 100*(Cat-|An|)/(Cat+|An|)  =      0
                               Iterations  =   7
                                  Total H  = 1.110124e+02
                                  Total O  = 5.550622e+01

----------------------------Distribution of species----------------------------

                                                   Log       Log         Log 
   Species                 Molality    Activity  Molality  Activity     Gamma

   OH-                    1.052e-07   1.001e-07    -6.978    -7.000    -0.022
   H+                     1.047e-07   1.000e-07    -6.980    -7.000    -0.020
   H2O                    5.551e+01   9.999e-01     1.744         0         0
Cl               1.994e-03
   Cl-                    1.994e-03   1.897e-03    -2.700    -2.722    -0.022
H(0)             0.000e+00
   H2                     0.000e+00   0.000e+00   -40.534   -40.533         0
Na               1.994e-03
   Na+                    1.994e-03   1.898e-03    -2.700    -2.722    -0.021
   NaOH                   1.254e-10   1.254e-10    -9.902    -9.902         0
O(0)             9.722e-12
   O2                     4.861e-12   4.863e-12   -11.313   -11.313         0

------------------------------Saturation indices-------------------------------

	Phase               SI log IAP  log KT

	H2(g)           -37.38  -40.53   -3.15  H2
	H2O(g)           -1.51       0    1.51  H2O
	Halite           -7.03   -5.44    1.58  NaCl
	O2(g)            -8.35  -11.31   -2.96  O2

